<?xml version="1.0" encoding="UTF-8"?>
<!-- generated on 2021-04-07 08:14:31.200976 by $Id$
  options: -n map.net.xml -r bus_routes.rou.xml -o bus_trips.xml -e 300 -p 30 <doubleminus>vehicle-class bus <doubleminus>trip-attributes=accel="0.8"
-->
<routes xmlns:xsi="http://www.w3.org/2001/XMLSchema-instance" xsi:noNamespaceSchemaLocation="http://sumo.dlr.de/xsd/routes_file.xsd">
    <vType id="bus" vClass="bus" accel="0.8"/>
    <trip id="0" depart="0.00" from="-30989254" to="48828683#0" type="bus"/>
    <trip id="1" depart="30.00" from="407836307#2" to="162031067#1" type="bus"/>
    <trip id="2" depart="60.00" from="49236348#1" to="-48846530#1" type="bus"/>
    <trip id="3" depart="90.00" from="-112571165#0" to="80339001#6" type="bus"/>
    <trip id="4" depart="120.00" from="-165886068#1" to="-44474503#2" type="bus"/>
    <trip id="5" depart="150.00" from="-83631585#1" to="-170672565" type="bus"/>
    <trip id="6" depart="180.00" from="44660064#1" to="30967917#5" type="bus"/>
    <trip id="7" depart="210.00" from="30967931#0" to="44706459#0" type="bus"/>
    <trip id="8" depart="240.00" from="-49381231#2" to="-390775715#1" type="bus"/>
    <trip id="9" depart="270.00" from="-390775704#0" to="-48846508#0" type="bus"/>
</routes>
