<?xml version="1.0" encoding="UTF-8"?>

<!-- generated on Wed Apr  7 08:14:33 2021 by Eclipse SUMO duarouter Version 1.1.0
<configuration xmlns:xsi="http://www.w3.org/2001/XMLSchema-instance" xsi:noNamespaceSchemaLocation="http://sumo.dlr.de/xsd/duarouterConfiguration.xsd">

    <input>
        <net-file value="map.net.xml"/>
        <route-files value="delivery_trips.xml"/>
    </input>

    <output>
        <output-file value="delivery_routes.rou.xml"/>
        <alternatives-output value="delivery_routes.rou.alt.xml"/>
    </output>

    <time>
        <begin value="0"/>
        <end value="300.0"/>
    </time>

    <report>
        <no-warnings value="true"/>
        <ignore-errors value="true"/>
        <no-step-log value="true"/>
    </report>

</configuration>
-->

<routes xmlns:xsi="http://www.w3.org/2001/XMLSchema-instance" xsi:noNamespaceSchemaLocation="http://sumo.dlr.de/xsd/routes_file.xsd">
    <vType id="delivery" vClass="delivery" color="115,211,230"/>
    <vehicle id="deliv0" type="delivery" depart="0.00">
        <route edges="48846511#1 48846492#4 48846492#5 396464769#1 354120398#0 354120398#1 354120398#2 354120398#3 354120398#4 354120398#5 354120398#6 44617691#0 44617691#1 -44617692#7 -44617692#6 -44617692#5 -44617692#4 -44617692#3 -44617692#2 -44617692#1 -44617692#0 30765305#0 30765305#1 30765305#2 30765305#3 30765305#4 30765305#5 30765305#6 30765305#7 30765305#8 30765305#9 30765305#10 30765305#11 30765305#12 30765305#13 30765305#14 162031059 558877178 812662184 136299032#0 136299032#1 136299032#2 136299032#3 136299032#4 136299032#5 136299032#6 48828888#0 48828888#1 48828888#2 48828888#3 569868740#0 569868740#1 569868740#2 569868740#3 569868740#4 569868740#5 569868740#6 569868740#7 569868740#8 569868740#9 569868740#10 569868740#11 399684422 886563423#0 886563423#1"/>
    </vehicle>
    <vehicle id="deliv1" type="delivery" depart="30.00">
        <route edges="-48846508#2 48846508#2 48846508#3 660083129 48846492#3 48846492#4 48846492#5 396464769#1 354120398#0 354120398#1 354120398#2 162031071#0 162031071#1 802064026#0 802064026#1 438007000 406255155 396464768#0 396464768#1 30765299 354129651#0 354129651#1 112571156#0 112571156#1 112571156#2 30967848#0 112571164#0 112571164#1 112571164#2 112571164#3 112571164#4 31313276 30964625#0 30964625#1 30964625#2 30964625#3 30964625#4 30964625#5 30964625#6"/>
    </vehicle>
    <vehicle id="deliv2" type="delivery" depart="60.00">
        <route edges="396220342 126982581#0 126982581#1 886563423#0 886563423#1 886563423#2 886563423#3 886563423#4 886563423#5 886563422#0 886563422#1 886563422#2 886563422#3 886563422#4 391000055#0 391000055#1 391000055#2 391000055#3 391000055#4 391000055#5 391000055#6 391000055#7 391000055#8 44936304#0 44936304#1 44936304#2 112571165#2 112571165#3 407836307#0 407836307#1 407836307#2 407836307#3 407836307#4 407836307#5 30967938#0 30967938#1 30967938#2 30967938#3 30967938#4 30967938#5 30967938#6 30967938#7 30967938#8 30967938#9 30967938#10 30967938#11 30967938#12 396067915#0 396067915#1 396067915#2 396067915#3 44617694#0 44617694#1 112571163 -396067910#23 -396067910#22 -396067910#21 -396067910#20 -396067910#19 -396067910#18 -396067910#17 -396067910#16"/>
    </vehicle>
    <vehicle id="deliv3" type="delivery" depart="90.00">
        <route edges="131510689#1 131510689#2 131510689#3 131510689#4 425099101#0 425099101#1 490928644#0 490928644#1 778820631 778820630#0 -76743738"/>
    </vehicle>
    <vehicle id="deliv4" type="delivery" depart="120.00">
        <route edges="44474503#3 44474503#4 147010291#0 147010291#1 147010291#2 443832372#0 136050614 136299032#6 48828888#0 48828888#1 48828888#2 48828888#3 569868740#0 569868740#1 569868740#2 569868740#3 474375214#0 474375214#1 474375214#2 45744093#0 45744093#1 807002511 396213760#0 396213760#1 396213760#2 396213760#3 396213760#4 396213760#5 396213760#6 886563422#0 886563422#1 886563422#2 886563422#3 886563422#4 31263337#0 31263337#1 396232538#2 396232538#3 31263361#0 31263361#1 396220343#0 396220343#1 396220343#2 136035858 136035855#0 136035855#1 -131398241 44706459#0 44706459#1 44706459#2 44706459#3 44706459#4 778024065 474474477#0 474474477#1 -397307498#6 -397307498#5 -397307498#4 48846317 160892854#0"/>
    </vehicle>
    <vehicle id="deliv5" type="delivery" depart="150.00">
        <route edges="-145298461#0 -80339001#6 -80339001#5 -80339001#4 -80339001#3 -80339001#2 -80339001#1 -80339001#0 -354120404#1 -354120404#0 -83631585#2 -83631585#1 -83631585#0 -80334263 -398193759 398193760 30967916 30765305#5 30765305#6 30765305#7 30765305#8 30765305#9 30765305#10 30765305#11 30765305#12 30765305#13 30765305#14 30765305#15 30765305#16 30765305#17 -686469802#12 -686469802#11 -686469802#10 -686469802#9 -686469802#8 -686469802#7"/>
    </vehicle>
    <vehicle id="deliv6" type="delivery" depart="180.00">
        <route edges="425099101#0 425099101#1 490928644#0 490928644#1 778820631 778820630#0 -76743738 -112571168 -76750151 -396229580#0 810908631 30765325#4 30765325#5 30765325#6 30765325#7 30765325#8 354120399#0 354120399#1 31313292 112571146#0 112571146#1 112571146#2 112571146#3 112571146#4 112571146#5 112571146#6 112571146#7 112571146#8 396464770#0 396464770#1 396464769#0 396464769#1 354120398#0 354120398#1 354120398#2 354120398#3 354120398#4 354120398#5 354120398#6 30765317#0 30765317#1 30765317#2 30765317#3 30765317#4 30765317#5 30765317#6 30765317#7 30765317#8 354120397#0 354120397#1 44660063 396060105#5 396060105#6 396060105#7 396060105#8 396060105#9 162438566#0"/>
    </vehicle>
    <vehicle id="deliv7" type="delivery" depart="210.00">
        <route edges="-238961507#2 -238961507#1 -238961507#0 44936327#0 463054744 44936330 396213762 45208068 399711231#0 399711231#1 399711231#2 399711231#3 396213764#0 396213764#1 396213764#2 396213764#3 391000055#4 391000055#5 391000055#6 391000055#7 391000055#8 44936304#0 44936304#1 44936304#2 112571165#2 112571165#3 407836307#0 407836307#1 407836307#2 407836307#3 407836307#4 407836307#5 30967938#0 30967938#1 30967938#2 30967938#3 30967938#4 30967938#5 30967938#6 30967938#7 30967938#8 30967938#9 30967938#10 30967938#11 30967938#12 396067915#0 396067915#1 396067915#2 396067915#3 44617694#0 44617694#1 112571163 -396067910#23 -396067910#22 -396067910#21 -396067910#20 49236331#0 49236331#1 49236334 396195860 396195856#0 396195856#1 49236345#0 49236345#1 -812654517#4 812654517#4"/>
    </vehicle>
    <vehicle id="deliv9" type="delivery" depart="270.00">
        <route edges="-48846492#2 48846492#2 48846492#3 48846492#4 48846492#5 396464769#1 354120398#0 354120398#1 354120398#2 354120398#3 354120398#4 354120398#5 354120398#6 30765317#0 30765317#1 30765317#2 30765317#3 30765317#4 30765317#5 30765317#6 30765317#7 30765317#8 -49285973 354120402#0 49285989#0 -102616728 -102616726#0 -80339001#4 -80339001#3 -80339001#2 -80339001#1 390776376#0 390776376#1"/>
    </vehicle>
</routes>
