<?xml version="1.0" encoding="UTF-8"?>

<!-- generated on Mon Mar 15 14:30:54 2021 by Eclipse SUMO polyconvert Version 1.1.0
<configuration xmlns:xsi="http://www.w3.org/2001/XMLSchema-instance" xsi:noNamespaceSchemaLocation="http://sumo.dlr.de/xsd/polyconvertConfiguration.xsd">

    <input>
        <net-file value="map.net.xml"/>
        <osm-files value="map.osm"/>
    </input>

    <output>
        <output-file value="map.poly.xml"/>
    </output>

    <processing>
        <poi-layer-offset value="5"/>
    </processing>

</configuration>
-->

<additional xmlns:xsi="http://www.w3.org/2001/XMLSchema-instance" xsi:noNamespaceSchemaLocation="http://sumo.dlr.de/xsd/additional_file.xsd">
    <location netOffset="-550768.95,1438540.17" convBoundary="-221.53,-575.31,7191.37,3867.35" origBoundary="-38.533858,-13.017395,-38.465497,-12.977212" projParameter="+proj=utm +zone=24 +ellps=WGS84 +datum=WGS84 +units=m +no_defs"/>

    <poly id="102616724" type="residential" color="235,235,227" fill="1" layer="-3.00" shape="2990.390394,289.300381 3013.101282,246.468674 3082.185271,233.383812 3156.705449,333.013056 3229.981891,461.796204 3306.383481,519.297467 3342.342981,569.114381 3256.345545,601.033354 3217.305791,645.168982 3124.731672,652.471891 3114.276771,640.836064 3112.027176,627.248886 3105.037178,585.127558 3104.545831,577.851663 3102.357456,545.618810 3107.515339,515.804609 3133.364318,469.516262 3131.516113,450.454071 3107.889512,374.159583 3080.606889,347.029684 3059.455300,333.092306 3034.095964,319.030408 3015.673925,297.877178 2990.390394,289.300381"/>
    <poly id="102616731" type="building" color="255,230,230" fill="1" layer="-1.00" shape="3369.017410,501.535508 3356.640498,499.668682 3348.160731,555.190689 3360.537667,557.057519 3369.017410,501.535508"/>
    <poly id="102616732" type="building" color="255,230,230" fill="1" layer="-1.00" shape="3269.532680,468.354232 3235.196650,466.674102 3235.616443,453.988550 3269.952478,455.679738 3269.532680,468.354232"/>
    <poly id="104459286" type="building" color="255,230,230" fill="1" layer="-1.00" shape="2010.954687,2221.355736 1984.534293,2174.703947 2010.836942,2159.701934 2037.246544,2206.364779 2010.954687,2221.355736"/>
    <poly id="112571166" type="building" color="255,230,230" fill="1" layer="-1.00" shape="2651.673785,1583.898686 2656.742810,1563.838856 2664.293462,1565.284044 2666.973569,1554.839132 2660.321671,1552.695488 2665.813493,1532.568483 2671.943521,1534.027476 2674.850629,1523.206117 2668.330050,1521.670467 2676.351637,1503.086830 2707.827758,1511.320188 2702.121777,1532.841055 2686.833988,1528.845155 2686.069566,1531.710924 2684.885330,1536.192124 2683.948701,1539.732828 2699.236495,1543.728729 2694.004194,1563.457113 2678.662124,1559.439196 2677.510227,1563.820801 2676.347485,1568.202428 2675.540046,1571.256284 2690.817012,1575.252211 2685.197139,1596.452195 2670.158851,1592.511097 2669.340651,1595.609209 2668.070209,1600.378109 2667.155072,1603.819239 2681.520637,1607.573637 2676.564664,1624.404014 2661.353361,1620.728663 2653.379112,1618.952521 2643.710477,1615.819393 2647.877424,1594.732820 2656.177816,1596.928575 2659.215801,1586.482972 2651.673785,1583.898686"/>
    <poly id="112571167" type="building" color="255,230,230" fill="1" layer="-1.00" shape="2620.976635,1187.635433 2628.553583,1180.299702 2621.163912,1172.318307 2613.587413,1179.886275 2620.976635,1187.635433"/>
    <poly id="112571170" type="tourism" color="207,245,201" fill="1" layer="-2.00" shape="2615.054918,2107.680912 2602.945805,2104.430829 2592.994339,2100.933276 2582.637135,2095.114106 2571.971991,2087.072663 2565.299867,2080.129413 2558.476026,2073.241749 2554.210425,2065.763018 2550.713398,2057.552908 2548.266074,2048.179575 2547.695068,2038.891093 2549.500345,2030.261568 2553.235625,2021.440316 2559.740862,2014.969290 2612.767692,1984.708931 2619.712316,1981.145566 2628.014732,1978.718655 2637.394666,1978.302403 2646.367823,1980.640632 2653.934928,1984.927966 2659.899663,1990.589716 2666.978800,2000.507036 2670.051050,2007.755818 2671.531603,2016.290526 2671.649157,2037.822230 2670.645588,2068.446623 2669.305108,2081.874877 2667.000319,2090.151488 2661.364724,2097.682524 2655.389282,2103.323122 2647.545689,2107.496479 2636.889059,2109.485583 2624.991848,2109.265274 2615.054918,2107.680912"/>
    <poly id="132357084" type="building" color="255,230,230" fill="1" layer="-1.00" shape="2312.854537,246.729562 2312.857903,225.927505 2336.205486,226.059532 2335.692425,246.840453 2312.854537,246.729562"/>
    <poly id="132357086" type="building" color="255,230,230" fill="1" layer="-1.00" shape="1944.414640,195.181828 1947.327038,209.774188 1980.492954,200.896765 2003.496981,225.536548 2014.288761,215.197832 1991.471238,191.685722 1999.634749,167.915309 1982.164814,162.164834 1975.813236,186.451553 1944.414640,195.181828"/>
    <poly id="132357087" type="building" color="255,230,230" fill="1" layer="-1.00" shape="1995.312170,255.190407 2049.942923,242.909909 2047.220616,231.347370 2045.809077,224.736769 1991.178359,237.017260 1992.709444,243.771402 1995.312170,255.190407"/>
    <poly id="132357088" type="tourism" color="207,245,201" fill="1" layer="-2.00" shape="1990.767900,266.224951 2102.480123,241.637052 2099.921873,230.815158 2086.780806,175.224443 2085.862452,171.333422 2077.283922,136.900956 2038.444407,116.261735 2012.600656,137.688291 1956.158837,115.755534 1955.294550,117.449218 1890.506243,142.721167 1867.618746,218.884147 1990.767900,266.224951"/>
    <poly id="136050153" type="amenity" color="237,199,199" fill="1" layer="-1.00" shape="1597.753041,1293.748466 1603.726181,1332.631710 1608.897528,1331.847772 1613.331660,1331.175822 1611.585828,1319.810461 1614.686466,1319.340102 1615.949311,1327.631971 1624.448967,1326.344062 1620.331440,1299.544809 1609.197323,1301.224780 1607.813828,1292.214303 1602.718378,1292.987038 1597.753041,1293.748466"/>
    <poly id="178328950" type="natural" color="140,196,107" fill="1" layer="-4.00" shape="2736.687043,90.940712 2735.322751,86.409149 2728.981413,65.287607 2730.662382,65.361762 2779.052471,67.424415 2819.149938,59.892778 2829.277361,48.261109 2835.141741,41.525816 2845.768196,35.588581 2855.273255,32.938057 2864.357354,42.453302 2885.417849,54.322954 2910.627330,69.557531 2947.976873,82.070047 2976.537354,91.801694 3137.474235,158.583041 3196.829424,161.419800 3222.958478,153.229229 3246.799467,139.524643 3254.639004,128.074235 3266.814122,132.197543 3271.545281,133.802900 3267.993035,141.694961 3264.297953,148.636223 3257.393510,155.827067 3248.795121,161.860024 3242.380254,164.327689 3239.693811,165.803801 3240.101252,168.976952 3204.374097,182.162886 3159.149716,185.392069 3128.418832,180.486591 3067.048942,156.608241 3064.650577,155.672901 3063.491272,150.632235 3053.355116,146.637571 3048.632230,149.267777 2876.537898,77.309862 2856.642349,73.411512 2752.216761,97.070485 2750.317849,90.858984 2736.687043,90.940712"/>
    <poly id="194482842" type="building" color="255,230,230" fill="1" layer="-1.00" shape="2390.491149,913.130380 2423.170653,944.099094 2415.248490,952.364393 2429.926037,966.270502 2447.393790,948.066848 2436.388339,937.637269 2442.059410,931.731876 2423.981358,914.592028 2418.645801,920.153942 2411.127767,913.024286 2416.896246,907.019179 2412.441895,902.781089 2406.684261,908.786175 2400.393899,902.826410 2390.491149,913.130380"/>
    <poly id="217676604" type="leisure" color="207,245,201" fill="1" layer="-2.00" shape="1992.288185,607.713881 1984.451178,592.456338 1980.762852,574.757879 2009.122684,473.812130 2021.060594,461.668602 2034.690040,455.117703 2050.822816,453.361627 2074.277427,463.988700 2090.172585,479.717387 2095.320760,495.234410 2095.601755,511.722889 2080.588828,565.985131 2071.359147,599.323663 2056.253135,616.328187 2040.650010,622.904987 2019.657028,623.675035 2005.009468,619.578022 1992.288185,607.713881"/>
    <poly id="217676612" type="leisure" color="207,245,201" fill="1" layer="-2.00" shape="1990.771378,580.069204 2057.606782,598.343612 2085.963589,495.949048 2019.139253,477.674696 1990.771378,580.069204"/>
    <poly id="217676612#1" type="sport" color="79,230,125" fill="1" layer="-2.00" shape="1990.771378,580.069204 2057.606782,598.343612 2085.963589,495.949048 2019.139253,477.674696 1990.771378,580.069204"/>
    <poly id="229234707" type="building" color="255,230,230" fill="1" layer="-1.00" shape="2478.614606,363.282178 2507.482262,363.558241 2507.563293,354.976270 2501.219364,354.922160 2501.246987,352.378528 2496.930927,352.331563 2496.914147,354.875174 2490.526842,354.821146 2490.554466,352.277514 2485.837174,352.231321 2485.809550,354.774953 2478.695668,354.711265 2478.614606,363.282178"/>
    <poly id="229235985" type="building" color="255,230,230" fill="1" layer="-1.00" shape="2360.476328,288.938748 2361.212436,265.735468 2366.515526,265.902203 2366.453889,267.682827 2379.153103,268.078617 2378.785227,279.768730 2370.369694,279.508459 2370.236621,283.611618 2365.952935,283.476098 2365.779401,289.094424 2360.476328,288.938748"/>
    <poly id="229235986" type="building" color="255,230,230" fill="1" layer="-1.00" shape="2395.309487,503.837252 2393.563555,503.829555 2393.540011,508.496514 2386.068276,508.455608 2386.091843,503.799708 2383.792838,503.782017 2383.902086,481.674792 2386.211912,481.681403 2386.234648,476.594202 2392.958107,476.625490 2392.935372,481.712691 2395.418726,481.730026 2395.309487,503.837252"/>
    <poly id="229235987" type="amenity" color="237,199,199" fill="1" layer="-1.00" shape="2509.511119,274.197278 2543.009125,274.475421 2543.317699,237.736689 2538.405233,237.690883 2538.422991,235.655985 2499.795687,235.332445 2499.761127,239.899895 2490.847118,239.817568 2490.784783,246.851238 2531.212238,247.182375 2531.080013,262.941764 2509.608308,262.750983 2509.511119,274.197278"/>
    <poly id="229235987#1" type="building" color="255,230,230" fill="1" layer="-1.00" shape="2509.511119,274.197278 2543.009125,274.475421 2543.317699,237.736689 2538.405233,237.690883 2538.422991,235.655985 2499.795687,235.332445 2499.761127,239.899895 2490.847118,239.817568 2490.784783,246.851238 2531.212238,247.182375 2531.080013,262.941764 2509.608308,262.750983 2509.511119,274.197278"/>
    <poly id="229235988" type="building" color="255,230,230" fill="1" layer="-1.00" shape="2509.020290,598.570913 2470.207319,597.827427 2470.413910,586.867522 2509.226866,587.611008 2509.020290,598.570913"/>
    <poly id="229235989" type="building" color="255,230,230" fill="1" layer="-1.00" shape="2470.730214,582.188939 2471.061773,568.552506 2502.521831,569.044764 2502.765435,582.890209 2470.730214,582.188939"/>
    <poly id="229235990" type="building" color="255,230,230" fill="1" layer="-1.00" shape="2515.555734,630.397270 2547.797802,631.485158 2547.469049,640.941271 2515.237835,639.864420 2515.555734,630.397270"/>
    <poly id="229235991" type="building" color="255,230,230" fill="1" layer="-1.00" shape="2480.048949,409.760553 2494.710207,409.732264 2494.685451,396.903826 2480.024200,396.932115 2480.048949,409.760553"/>
    <poly id="229235992" type="building" color="255,230,230" fill="1" layer="-1.00" shape="2473.041610,566.137817 2503.635261,567.217873 2504.159908,552.497281 2476.570196,551.455668 2474.091038,553.616962 2474.055639,557.753110 2473.026103,558.097926 2473.041610,566.137817"/>
    <poly id="229235993" type="building" color="255,230,230" fill="1" layer="-1.00" shape="2413.645917,272.513200 2400.416150,272.538691 2400.444145,287.070214 2413.673919,287.044723 2413.645917,272.513200"/>
    <poly id="229235994" type="building" color="255,230,230" fill="1" layer="-1.00" shape="2380.380307,246.500069 2380.257242,227.644645 2406.934252,227.925027 2406.362911,246.571668 2380.380307,246.500069"/>
    <poly id="229235995" type="building" color="255,230,230" fill="1" layer="-1.00" shape="2399.736369,527.627773 2424.993510,528.132064 2424.854648,534.856227 2424.804796,537.123426 2399.547626,536.608075 2399.736369,527.627773"/>
    <poly id="229235996" type="building" color="255,230,230" fill="1" layer="-1.00" shape="2395.741759,272.238042 2395.301965,285.996334 2383.025683,285.610795 2383.465483,271.852504 2395.741759,272.238042"/>
    <poly id="229236047" type="building" color="255,230,230" fill="1" layer="-1.00" shape="2402.897442,581.103187 2425.248069,581.447193 2425.402119,571.349995 2403.051479,570.994931 2402.897442,581.103187"/>
    <poly id="229236048" type="building" color="255,230,230" fill="1" layer="-1.00" shape="2423.522699,513.326848 2423.928871,504.633661 2417.888097,504.346707 2417.481945,513.050953 2423.522699,513.326848"/>
    <poly id="229236049" type="building" color="255,230,230" fill="1" layer="-1.00" shape="2488.552065,629.631011 2489.281005,642.104199 2475.098283,642.916749 2474.380172,630.432481 2488.552065,629.631011"/>
    <poly id="229236050" type="amenity" color="237,199,199" fill="1" layer="-1.00" shape="2474.716632,332.622980 2483.435285,332.606160 2483.461445,346.164492 2474.742788,346.181313 2474.716632,332.622980"/>
    <poly id="229236050#1" type="building" color="255,230,230" fill="1" layer="-1.00" shape="2474.716632,332.622980 2483.435285,332.606160 2483.461445,346.164492 2474.742788,346.181313 2474.716632,332.622980"/>
    <poly id="229236050#2" type="commercial" color="209,209,204" fill="1" layer="-3.00" shape="2474.716632,332.622980 2483.435285,332.606160 2483.461445,346.164492 2474.742788,346.181313 2474.716632,332.622980"/>
    <poly id="229236051" type="building" color="255,230,230" fill="1" layer="-1.00" shape="2506.633454,378.876650 2506.731115,367.673654 2482.895271,367.465295 2482.797621,378.679349 2506.633454,378.876650"/>
    <poly id="229236052" type="building" color="255,230,230" fill="1" layer="-1.00" shape="2428.201467,420.222849 2427.544150,444.896830 2408.511663,444.402671 2409.168976,419.717631 2428.201467,420.222849"/>
    <poly id="229236053" type="building" color="255,230,230" fill="1" layer="-1.00" shape="2355.694773,463.957222 2355.966865,447.567206 2365.000353,447.715703 2364.728266,464.105720 2355.694773,463.957222"/>
    <poly id="229236054" type="building" color="255,230,230" fill="1" layer="-1.00" shape="2428.414300,418.121221 2406.540329,417.455593 2407.009459,402.038390 2428.883417,402.704018 2428.414300,418.121221"/>
    <poly id="229236055" type="building" color="255,230,230" fill="1" layer="-1.00" shape="2474.593772,628.728977 2488.789293,628.933834 2488.990075,614.965882 2474.794560,614.761025 2474.593772,628.728977"/>
    <poly id="229236056" type="building" color="255,230,230" fill="1" layer="-1.00" shape="2387.246937,309.633956 2422.338653,309.699056 2422.596920,297.411965 2387.470940,296.440092 2387.246937,309.633956"/>
    <poly id="229236057" type="building" color="255,230,230" fill="1" layer="-1.00" shape="2383.279512,462.466443 2384.457801,426.743483 2393.307209,427.036093 2392.128931,462.759054 2383.279512,462.466443"/>
    <poly id="229236058" type="building" color="255,230,230" fill="1" layer="-1.00" shape="2481.314915,599.431681 2500.076001,599.716196 2500.005954,613.993550 2481.136608,613.808774 2481.314915,599.431681"/>
    <poly id="229236059" type="building" color="255,230,230" fill="1" layer="-1.00" shape="2411.732290,320.535235 2427.685034,321.068503 2428.023193,310.849299 2412.081299,310.316011 2411.732290,320.535235"/>
    <poly id="229236060" type="amenity" color="237,199,199" fill="1" layer="-1.00" shape="2485.968706,229.320893 2510.889754,230.002689 2511.143669,221.099671 2486.222628,220.417876 2485.968706,229.320893"/>
    <poly id="229236060#1" type="building" color="255,230,230" fill="1" layer="-1.00" shape="2485.968706,229.320893 2510.889754,230.002689 2511.143669,221.099671 2486.222628,220.417876 2485.968706,229.320893"/>
    <poly id="229236061" type="building" color="255,230,230" fill="1" layer="-1.00" shape="2417.343096,289.050398 2417.713381,272.991959 2430.271391,273.266349 2429.901135,289.335847 2417.343096,289.050398"/>
    <poly id="229236062" type="building" color="255,230,230" fill="1" layer="-1.00" shape="2480.072544,208.408566 2506.219591,209.419770 2505.940401,216.464918 2479.793347,215.453713 2480.072544,208.408566"/>
    <poly id="229236063" type="building" color="255,230,230" fill="1" layer="-1.00" shape="2527.594643,569.538259 2543.915554,569.716865 2544.081253,554.444012 2527.760351,554.265407 2527.594643,569.538259"/>
    <poly id="229236064" type="building" color="255,230,230" fill="1" layer="-1.00" shape="2489.162702,451.512960 2475.553538,451.660865 2475.687386,464.831922 2489.296578,464.695077 2489.162702,451.512960"/>
    <poly id="229236065" type="building" color="255,230,230" fill="1" layer="-1.00" shape="2412.372261,562.638461 2412.878186,543.803947 2422.746920,544.061408 2422.251846,562.895902 2412.372261,562.638461"/>
    <poly id="229236066" type="building" color="255,230,230" fill="1" layer="-1.00" shape="2496.184650,521.934430 2496.401217,516.150134 2503.038360,516.402743 2502.821795,522.187038 2496.184650,521.934430"/>
    <poly id="229236067" type="building" color="255,230,230" fill="1" layer="-1.00" shape="2476.370119,447.733331 2490.793275,447.937744 2491.003977,433.494233 2476.580829,433.289820 2476.370119,447.733331"/>
    <poly id="229236068" type="building" color="255,230,230" fill="1" layer="-1.00" shape="2415.298353,460.369904 2415.682857,446.058768 2425.692552,446.327015 2425.318897,460.638130 2415.298353,460.369904"/>
    <poly id="229236069" type="building" color="255,230,230" fill="1" layer="-1.00" shape="2413.697089,625.506533 2414.259517,607.855227 2423.434309,608.147203 2422.871888,625.798510 2413.697089,625.506533"/>
    <poly id="229236070" type="building" color="255,230,230" fill="1" layer="-1.00" shape="2535.070718,583.049028 2547.412031,583.345907 2547.703807,571.589585 2535.482255,571.535774 2535.070718,583.049028"/>
    <poly id="229236071" type="building" color="255,230,230" fill="1" layer="-1.00" shape="2402.657099,591.443849 2424.412091,592.198188 2424.083446,601.731711 2402.328446,600.977372 2402.657099,591.443849"/>
    <poly id="229236072" type="building" color="255,230,230" fill="1" layer="-1.00" shape="2428.230947,491.785828 2428.403976,480.284095 2421.420107,480.175904 2421.333783,486.026302 2421.247076,491.677637 2428.230947,491.785828"/>
    <poly id="229236073" type="building" color="255,230,230" fill="1" layer="-1.00" shape="2421.333783,486.026302 2421.420107,480.175904 2428.403976,480.284095 2428.452613,477.386533 2415.341607,477.190618 2415.206623,485.927517 2421.333783,486.026302"/>
    <poly id="229236075" type="building" color="255,230,230" fill="1" layer="-1.00" shape="2397.260639,525.940509 2423.993267,526.795848 2424.884020,521.961333 2424.148404,517.262659 2404.790883,516.946066 2404.732167,520.241772 2400.806450,520.182980 2397.260639,525.940509"/>
    <poly id="229236076" type="building" color="255,230,230" fill="1" layer="-1.00" shape="2491.558340,417.313789 2477.601711,417.219067 2477.526856,429.008147 2496.124844,429.127090 2496.140450,425.975233 2491.499076,425.939954 2491.558340,417.313789"/>
    <poly id="229236077" type="building" color="255,230,230" fill="1" layer="-1.00" shape="2487.833242,532.467689 2472.596729,532.264841 2472.776446,518.617642 2485.356066,518.792438 2485.242983,527.628828 2487.899870,527.656879 2487.833242,532.467689"/>
    <poly id="229236078" type="building" color="255,230,230" fill="1" layer="-1.00" shape="2535.026944,509.838274 2506.895705,509.129510 2507.087422,501.708525 2512.802594,501.852320 2513.276620,483.382810 2535.681820,483.947798 2535.026944,509.838274"/>
    <poly id="229236079" type="building" color="255,230,230" fill="1" layer="-1.00" shape="2416.183931,227.752376 2415.916188,246.376315 2406.362911,246.571668 2406.934252,227.925027 2416.183931,227.752376"/>
    <poly id="229236080" type="building" color="255,230,230" fill="1" layer="-1.00" shape="2493.878025,517.968686 2475.160116,517.551376 2475.459522,504.114067 2487.714024,504.400079 2487.513336,512.794277 2493.998446,512.936591 2493.878025,517.968686"/>
    <poly id="229236081" type="building" color="255,230,230" fill="1" layer="-1.00" shape="2480.195794,294.768375 2490.313749,294.970032 2489.995527,309.889292 2485.115475,309.788118 2485.085162,310.938317 2479.858077,310.826753 2480.195794,294.768375"/>
    <poly id="229236082" type="building" color="255,230,230" fill="1" layer="-1.00" shape="2476.748913,273.088247 2476.946240,251.710742 2508.936891,251.991833 2508.793979,267.839714 2504.890028,267.803014 2504.835637,273.332639 2476.748913,273.088247"/>
    <poly id="229236083" type="building" color="255,230,230" fill="1" layer="-1.00" shape="2421.247076,491.677637 2428.230947,491.785828 2431.733717,491.834372 2431.580182,502.196986 2424.986697,502.088044 2421.121829,499.839448 2421.247076,491.677637"/>
    <poly id="229236084" type="building" color="255,230,230" fill="1" layer="-1.00" shape="2405.926148,351.954092 2422.962212,351.910206 2423.794909,328.209081 2394.697949,327.092886 2394.222314,356.024247 2395.794688,356.010159 2405.771945,356.344828 2405.926148,351.954092"/>
    <poly id="229236085" type="building" color="255,230,230" fill="0" layer="-1.00" shape="2422.585217,370.114110 2400.322921,370.499835 2400.548879,363.952449 2395.538561,363.785156 2395.794688,356.010159 2405.771945,356.344828"/>
    <poly id="229236086" type="building" color="255,230,230" fill="1" layer="-1.00" shape="2359.863047,246.384748 2359.414674,227.529950 2380.257242,227.644645 2380.380307,246.500069 2359.863047,246.384748"/>
    <poly id="229236087" type="amenity" color="237,199,199" fill="1" layer="-1.00" shape="2486.038513,383.516956 2505.232300,383.325088 2505.121296,393.234202 2492.520493,393.291698 2492.458053,394.652080 2485.701996,394.576644 2486.038513,383.516956"/>
    <poly id="229236087#1" type="building" color="255,230,230" fill="1" layer="-1.00" shape="2486.038513,383.516956 2505.232300,383.325088 2505.121296,393.234202 2492.520493,393.291698 2492.458053,394.652080 2485.701996,394.576644 2486.038513,383.516956"/>
    <poly id="229236088" type="building" color="255,230,230" fill="1" layer="-1.00" shape="2509.522952,218.537102 2523.740635,219.095780 2541.437786,218.884655 2541.686353,195.991958 2537.034152,195.945649 2537.005850,198.135394 2524.458992,198.004800 2524.403068,202.738178 2509.709024,202.578546 2509.522952,218.537102"/>
    <poly id="229236089" type="building" color="255,230,230" fill="1" layer="-1.00" shape="2478.338283,332.472226 2478.653524,316.004707 2494.421471,316.306053 2494.106238,332.773572 2490.787795,332.702563 2490.758336,334.295121 2484.446816,334.174591 2484.476297,332.593092 2478.338283,332.472226"/>
    <poly id="229236090" type="building" color="255,230,230" fill="1" layer="-1.00" shape="2516.145442,593.204586 2540.480785,593.655258 2540.304512,603.453907 2534.589403,603.354353 2534.510123,607.225169 2521.268838,606.985317 2521.337275,603.114522 2515.958337,603.014314 2516.145442,593.204586"/>
    <poly id="229236091" type="building" color="255,230,230" fill="1" layer="-1.00" shape="2544.207954,221.433942 2513.529638,221.238832 2513.490257,228.924941 2521.775243,228.975299 2521.756737,230.623132 2537.404945,230.714560 2537.387294,232.804753 2544.143249,232.846998 2544.207954,221.433942"/>
    <poly id="229236092" type="parking" color="184,184,179" fill="1" layer="-1.00" shape="2468.796695,535.523528 2508.272333,536.918217 2507.871138,548.177093 2468.395484,546.782402 2468.796695,535.523528"/>
    <poly id="229236093" type="parking" color="184,184,179" fill="0" layer="-1.00" shape="2422.585217,370.114110 2422.591833,356.666306 2422.962212,351.910206 2423.794909,328.209081 2434.000010,328.609654"/>
    <poly id="234910282" type="amenity" color="237,199,199" fill="1" layer="-1.00" shape="1201.581608,2083.380209 1254.088006,2150.310058 1271.804304,2136.585650 1252.856312,2112.435276 1257.090458,2109.153839 1265.656735,2120.075069 1287.542164,2103.113570 1280.345635,2093.948148 1286.020046,2089.558093 1304.163601,2112.681474 1323.926532,2097.371736 1271.920122,2031.082496 1253.142648,2045.627271 1273.145059,2071.113799 1241.145350,2095.913044 1220.077586,2069.057181 1201.581608,2083.380209"/>
    <poly id="234910282#1" type="building" color="255,230,230" fill="1" layer="-1.00" shape="1201.581608,2083.380209 1254.088006,2150.310058 1271.804304,2136.585650 1252.856312,2112.435276 1257.090458,2109.153839 1265.656735,2120.075069 1287.542164,2103.113570 1280.345635,2093.948148 1286.020046,2089.558093 1304.163601,2112.681474 1323.926532,2097.371736 1271.920122,2031.082496 1253.142648,2045.627271 1273.145059,2071.113799 1241.145350,2095.913044 1220.077586,2069.057181 1201.581608,2083.380209"/>
    <poly id="234991797" type="building" color="255,230,230" fill="1" layer="-1.00" shape="1579.421913,1995.610493 1579.400103,1984.098102 1599.322609,1984.447418 1638.489168,1976.222669 1640.724314,1988.250638 1611.053786,1994.378295 1598.576348,2002.685146 1594.153413,2003.600366 1592.708433,1996.492159 1579.421913,1995.610493"/>
    <poly id="238965525" type="building" color="255,230,230" fill="1" layer="-1.00" shape="857.551005,904.969098 862.452938,905.125817 862.784442,914.226763 869.268465,913.750159 871.475987,911.224576 870.795055,889.240535 867.317850,885.486974 861.939661,885.806684 862.437076,896.643585 857.536034,896.962402 857.551005,904.969098"/>
    <poly id="253552073" type="residential" color="235,235,227" fill="1" layer="-3.00" shape="2186.616402,296.560795 2242.176752,288.358918 2247.078207,372.995367 2246.856992,393.322300 2249.488005,475.861888 2248.293499,503.235294 2167.597765,501.123066 2182.192364,471.976636 2188.723795,445.400305 2179.900946,425.035431 2165.305627,419.865680 2168.466184,382.845029 2181.947999,344.599143 2186.616402,296.560795"/>
    <poly id="253552097" type="residential" color="235,235,227" fill="1" layer="-3.00" shape="1956.352231,1471.968043 1942.890382,1464.329832 1915.498717,1465.233635 1884.741247,1446.978542 1841.844301,1369.448065 1828.671800,1371.342127 1836.646019,1413.030512 1828.935869,1430.286210 1799.738366,1451.000045 1778.230318,1454.977981 1770.795173,1428.693773 1766.273493,1428.956731 1759.106382,1366.829725 1744.769633,1349.571737 1709.988206,1325.142115 1729.105281,1295.666671 1713.972653,1281.860596 1701.972960,1256.038465 1677.990198,1235.956601 1647.782922,1238.822941 1619.318454,1262.897140 1638.454568,1346.301138 1576.079461,1359.104115 1577.809626,1442.319946 1587.358598,1502.573493 1663.159430,1695.365339 1682.519930,1731.104508 1702.423614,1750.187754 1731.061376,1702.933462 1757.825635,1679.924067 1777.574008,1662.955154 1790.368803,1656.262226 1802.806078,1649.757975 1804.452837,1648.903297 1810.768969,1645.595689 1812.415727,1644.741010 1820.086084,1640.723044 1853.606015,1623.197022 1983.259820,1581.013931 2072.334779,1590.918459 2098.228493,1657.223061 2098.242642,1670.283741 2101.318343,1696.432446 2092.489123,1763.577612 2096.995917,1766.842460 2218.210893,1740.566248 2162.228030,1722.227108 2145.301712,1706.400892 2143.750676,1683.622273 2176.815954,1604.354186 2284.411893,1573.779670 2304.237741,1546.536379 2269.413638,1522.870591 2228.301131,1511.237989 2216.579933,1506.527212 2208.341175,1502.506469 2190.349447,1479.593489 2071.187271,1472.920864 2111.188063,1374.087215 2113.679500,1259.345044 2113.958518,1246.482861 2115.090917,1243.207220 2133.899302,1188.705487 2076.065201,1182.744808 2020.224976,1102.231299 1984.849048,1027.705767 1975.030773,985.821869 1924.006221,1007.650273 1915.528852,1026.245612 1884.124473,1066.582481 1861.741545,1049.483662 1840.584258,1060.947951 1801.007106,1040.763192 1776.928607,1084.293101 1787.167697,1091.019621 1783.981042,1097.561568 1820.535977,1108.097581 1834.174918,1112.030735 1892.964974,1181.524186 1839.084779,1235.871387 1824.081090,1261.313598 1814.704869,1280.640504 1855.312277,1300.657406 1879.987275,1331.066929 1908.647397,1335.734485 1918.827409,1345.535480 1912.237187,1352.924419 1923.209847,1357.559337 1940.053889,1387.275971 1974.108421,1417.070328 1982.653184,1439.393239 1956.352231,1471.968043"/>
    <poly id="253552115" type="residential" color="235,235,227" fill="1" layer="-3.00" shape="2949.417244,1876.020816 3004.842907,1902.930228 3037.853716,1913.736998 3200.077431,1950.988173 3234.002257,1963.285898 3260.055146,2037.286295 3212.276668,2111.397809 3154.230666,2064.687171 3100.411369,2010.890395 2953.884810,1953.867736 2913.629902,1943.174473 2915.378257,1933.217945 2874.635664,1917.084529 2912.832903,1890.192188 2949.417244,1876.020816"/>
    <poly id="253552123" type="residential" color="235,235,227" fill="1" layer="-3.00" shape="3083.561809,2129.431864 3244.306286,2180.432093 3258.044824,2190.546376 3213.423659,2282.202392 3189.453344,2313.966514 3163.923327,2341.210510 3111.973716,2362.246581 3023.974453,2382.788722 2868.442338,2425.071053 2871.729609,2414.536478 2905.170272,2372.767958 2939.839973,2360.790035 2935.672710,2353.764589 2995.500877,2324.164897 2997.309544,2317.337956 2981.976176,2290.151501 3023.514135,2274.433214 3048.784504,2247.477390 3054.946033,2231.606737 3041.367053,2214.292613 3042.420129,2203.729185 3125.023117,2213.587713 3145.972608,2206.579660 3148.528897,2182.753510 3083.561809,2129.431864"/>