<?xml version="1.0" encoding="UTF-8"?>
<!-- generated on 2021-04-07 08:14:34.654785 by $Id$
  options: -n map.net.xml -r passenger_routes.rou.xml -o passenger_trips.xml -e 300 -p 1 <doubleminus>vehicle-class passenger <doubleminus>trip-attributes=color="255,255,255"
-->
<routes xmlns:xsi="http://www.w3.org/2001/XMLSchema-instance" xsi:noNamespaceSchemaLocation="http://sumo.dlr.de/xsd/routes_file.xsd">
    <vType id="passenger" vClass="passenger" color="255,255,255"/>
    <trip id="0" depart="0.00" from="354120402#0" to="-569868740#6" type="passenger"/>
    <trip id="1" depart="1.00" from="112571147#0" to="112571151#0" type="passenger"/>
    <trip id="2" depart="2.00" from="78804660#1" to="238961507#3" type="passenger"/>
    <trip id="3" depart="3.00" from="49236357#0" to="131398241" type="passenger"/>
    <trip id="4" depart="4.00" from="-76743738" to="136050614" type="passenger"/>
    <trip id="5" depart="5.00" from="396464770#1" to="30967917#2" type="passenger"/>
    <trip id="6" depart="6.00" from="-444760754#1" to="-131398241" type="passenger"/>
    <trip id="7" depart="7.00" from="813962437#1" to="558870795#0" type="passenger"/>
    <trip id="8" depart="8.00" from="-622327684" to="-44474503#3" type="passenger"/>
    <trip id="9" depart="9.00" from="443832372#1" to="777958274" type="passenger"/>
    <trip id="10" depart="10.00" from="570129462" to="-438006971" type="passenger"/>
    <trip id="11" depart="11.00" from="-490349862#1" to="162438566#2" type="passenger"/>
    <trip id="12" depart="12.00" from="30771959#1" to="30765317#5" type="passenger"/>
    <trip id="13" depart="13.00" from="162438566#2" to="-31312963#5" type="passenger"/>
    <trip id="14" depart="14.00" from="396195860" to="-48846374" type="passenger"/>
    <trip id="15" depart="15.00" from="80339001#0" to="49236330#0" type="passenger"/>
    <trip id="16" depart="16.00" from="-78804677#0" to="170674108" type="passenger"/>
    <trip id="17" depart="17.00" from="44706459#0" to="44437826" type="passenger"/>
    <trip id="18" depart="18.00" from="-49381263" to="-396229580#1" type="passenger"/>
    <trip id="19" depart="19.00" from="30765325#6" to="778924312" type="passenger"/>
    <trip id="20" depart="20.00" from="-112571158#1" to="569868740#0" type="passenger"/>
    <trip id="21" depart="21.00" from="354120397#2" to="396464769#1" type="passenger"/>
    <trip id="22" depart="22.00" from="-30765281" to="778870118#1" type="passenger"/>
    <trip id="23" depart="23.00" from="48846377#1" to="165886068#1" type="passenger"/>
    <trip id="24" depart="24.00" from="570106176" to="-30967938#5" type="passenger"/>
    <trip id="25" depart="25.00" from="396067910#18" to="49236317#4" type="passenger"/>
    <trip id="26" depart="26.00" from="30964625#1" to="112571146#3" type="passenger"/>
    <trip id="27" depart="27.00" from="396195856#0" to="-48623153#1" type="passenger"/>
    <trip id="28" depart="28.00" from="558870795#3" to="30967569#0" type="passenger"/>
    <trip id="29" depart="29.00" from="686469802#2" to="31263400#9" type="passenger"/>
    <trip id="30" depart="30.00" from="165886068#2" to="354120398#2" type="passenger"/>
    <trip id="31" depart="31.00" from="49239928#4" to="570123666#2" type="passenger"/>
    <trip id="32" depart="32.00" from="-396220344" to="-147010292" type="passenger"/>
    <trip id="33" depart="33.00" from="30765317#3" to="490349862#2" type="passenger"/>
    <trip id="34" depart="34.00" from="-686469802#5" to="-83631585#1" type="passenger"/>
    <trip id="35" depart="35.00" from="-99624822" to="778870118#0" type="passenger"/>
    <trip id="36" depart="36.00" from="-48828793" to="112571149" type="passenger"/>
    <trip id="37" depart="37.00" from="49381225#0" to="-44474503#1" type="passenger"/>
    <trip id="38" depart="38.00" from="-49236357#1" to="-813962437#7" type="passenger"/>
    <trip id="39" depart="39.00" from="-30967938#12" to="136049840" type="passenger"/>
    <trip id="40" depart="40.00" from="686469802#12" to="396213760#5" type="passenger"/>
    <trip id="41" depart="41.00" from="397323277#0" to="31312839#0" type="passenger"/>
    <trip id="42" depart="42.00" from="162031066" to="136299032#1" type="passenger"/>
    <trip id="43" depart="43.00" from="48827136" to="-48623153#0" type="passenger"/>
    <trip id="44" depart="44.00" from="30967848#0" to="30967936#4" type="passenger"/>
    <trip id="45" depart="45.00" from="30765325#0" to="131510689#2" type="passenger"/>
    <trip id="46" depart="46.00" from="48846316#0" to="-99624828#0" type="passenger"/>
    <trip id="47" depart="47.00" from="-48846318" to="48828683#2" type="passenger"/>
    <trip id="48" depart="48.00" from="-44474503#3" to="48846524#1" type="passenger"/>
    <trip id="49" depart="49.00" from="396229580#0" to="-80339001#2" type="passenger"/>
    <trip id="50" depart="50.00" from="49236341" to="661914674" type="passenger"/>
    <trip id="51" depart="51.00" from="112571156#2" to="354120398#6" type="passenger"/>
    <trip id="52" depart="52.00" from="-49236319" to="662240084" type="passenger"/>
    <trip id="53" depart="53.00" from="48846492#0" to="30967936#3" type="passenger"/>
    <trip id="54" depart="54.00" from="-48846372#1" to="30967938#1" type="passenger"/>
    <trip id="55" depart="55.00" from="48846521#0" to="76750152" type="passenger"/>
    <trip id="56" depart="56.00" from="136035855#1" to="391000055#7" type="passenger"/>
    <trip id="57" depart="57.00" from="44936304#1" to="136035855#1" type="passenger"/>
    <trip id="58" depart="58.00" from="30964625#5" to="396067915#0" type="passenger"/>
    <trip id="59" depart="59.00" from="-48846367" to="102616730#1" type="passenger"/>
    <trip id="60" depart="60.00" from="162438566#4" to="390776384#1" type="passenger"/>
    <trip id="61" depart="61.00" from="-48826792" to="-44617692#4" type="passenger"/>
    <trip id="62" depart="62.00" from="-44474503#1" to="131510689#4" type="passenger"/>
    <trip id="63" depart="63.00" from="812662183#1" to="407836307#2" type="passenger"/>
    <trip id="64" depart="64.00" from="662246625" to="-44474503#1" type="passenger"/>
    <trip id="65" depart="65.00" from="49236319" to="-133747104#0" type="passenger"/>
    <trip id="66" depart="66.00" from="-578705375#1" to="396060105#17" type="passenger"/>
    <trip id="67" depart="67.00" from="-390860503#1" to="778870283" type="passenger"/>
    <trip id="68" depart="68.00" from="31263400#1" to="145303050#2" type="passenger"/>
    <trip id="69" depart="69.00" from="-30967936#3" to="44936327#11" type="passenger"/>
    <trip id="70" depart="70.00" from="354120403#0" to="-80334263" type="passenger"/>
    <trip id="71" depart="71.00" from="48846309" to="-165886068#0" type="passenger"/>
    <trip id="72" depart="72.00" from="-49236356" to="-48828795#1" type="passenger"/>
    <trip id="73" depart="73.00" from="-165886069#0" to="45051007#0" type="passenger"/>
    <trip id="74" depart="74.00" from="165886068#1" to="-99624819#1" type="passenger"/>
    <trip id="75" depart="75.00" from="-49381243#3" to="812629547#0" type="passenger"/>
    <trip id="76" depart="76.00" from="396229580#1" to="-49236345#2" type="passenger"/>
    <trip id="77" depart="77.00" from="30967936#4" to="-354120404#1" type="passenger"/>
    <trip id="78" depart="78.00" from="-48828683#2" to="31263400#9" type="passenger"/>
    <trip id="79" depart="79.00" from="-812680081" to="-112571145" type="passenger"/>
    <trip id="80" depart="80.00" from="391000055#1" to="30967936#6" type="passenger"/>
    <trip id="81" depart="81.00" from="48846372#1" to="-48826801#1" type="passenger"/>
    <trip id="82" depart="82.00" from="165886067" to="-686469802#0" type="passenger"/>
    <trip id="83" depart="83.00" from="569785839" to="-30967936#13" type="passenger"/>
    <trip id="84" depart="84.00" from="396060105#20" to="693511193#2" type="passenger"/>
    <trip id="85" depart="85.00" from="30967938#12" to="99624828#3" type="passenger"/>
    <trip id="86" depart="86.00" from="-812654517#1" to="-813962437#1" type="passenger"/>
    <trip id="87" depart="87.00" from="-354120402#2" to="686469802#11" type="passenger"/>
    <trip id="88" depart="88.00" from="48846492#4" to="136299032#1" type="passenger"/>
    <trip id="89" depart="89.00" from="49285989#0" to="-438006981#1" type="passenger"/>
    <trip id="90" depart="90.00" from="396213761" to="-813962437#1" type="passenger"/>
    <trip id="91" depart="91.00" from="31312839#3" to="777962820#0" type="passenger"/>
    <trip id="92" depart="92.00" from="-49236331#2" to="812654514" type="passenger"/>
    <trip id="93" depart="93.00" from="558877180#1" to="44617694#0" type="passenger"/>
    <trip id="94" depart="94.00" from="48846521#1" to="396195856#0" type="passenger"/>
    <trip id="95" depart="95.00" from="570123666#2" to="48846508#3" type="passenger"/>
    <trip id="96" depart="96.00" from="-396195870" to="162438566#2" type="passenger"/>
    <trip id="97" depart="97.00" from="-76750151" to="-162438564#1" type="passenger"/>
    <trip id="98" depart="98.00" from="162482939" to="396220340#1" type="passenger"/>
    <trip id="99" depart="99.00" from="-99624819#1" to="133747104#0" type="passenger"/>
    <trip id="100" depart="100.00" from="802042427#1" to="778919893" type="passenger"/>
    <trip id="101" depart="101.00" from="-162476749#0" to="-48846508#4" type="passenger"/>
    <trip id="102" depart="102.00" from="-44617692#5" to="396195870" type="passenger"/>
    <trip id="103" depart="103.00" from="-95895495#0" to="30964625#6" type="passenger"/>
    <trip id="104" depart="104.00" from="396220344" to="778906705" type="passenger"/>
    <trip id="105" depart="105.00" from="802046967" to="396220343#0" type="passenger"/>
    <trip id="106" depart="106.00" from="-48826944" to="-238961507#1" type="passenger"/>
    <trip id="107" depart="107.00" from="136050614" to="-777958274" type="passenger"/>
    <trip id="108" depart="108.00" from="-126981823" to="30765305#11" type="passenger"/>
    <trip id="109" depart="109.00" from="48846367" to="-558882752#0" type="passenger"/>
    <trip id="110" depart="110.00" from="396067910#22" to="30765317#5" type="passenger"/>
    <trip id="111" depart="111.00" from="-813962437#5" to="80339001#1" type="passenger"/>
    <trip id="112" depart="112.00" from="396197862" to="-44617692#6" type="passenger"/>
    <trip id="113" depart="113.00" from="778906705" to="396229580#1" type="passenger"/>
    <trip id="114" depart="114.00" from="30967938#9" to="31263315#1" type="passenger"/>
    <trip id="115" depart="115.00" from="-48846483#3" to="-463054742" type="passenger"/>
    <trip id="116" depart="116.00" from="-396067910#5" to="30964625#9" type="passenger"/>
    <trip id="117" depart="117.00" from="396195863#1" to="-48846483#2" type="passenger"/>
    <trip id="118" depart="118.00" from="396232536" to="778885882#1" type="passenger"/>
    <trip id="119" depart="119.00" from="99624828#1" to="-48846477#1" type="passenger"/>
    <trip id="120" depart="120.00" from="-76750151" to="778826935" type="passenger"/>
    <trip id="121" depart="121.00" from="354120402#0" to="174617982" type="passenger"/>
    <trip id="122" depart="122.00" from="162438566#0" to="30765317#4" type="passenger"/>
    <trip id="123" depart="123.00" from="136050615#1" to="-48846483#0" type="passenger"/>
    <trip id="124" depart="124.00" from="-390860503#1" to="44617692#6" type="passenger"/>
    <trip id="125" depart="125.00" from="807002511" to="570123666#2" type="passenger"/>
    <trip id="126" depart="126.00" from="569868740#4" to="48846483#1" type="passenger"/>
    <trip id="127" depart="127.00" from="99624819#0" to="-30967936#1" type="passenger"/>
    <trip id="128" depart="128.00" from="31312963#2" to="-569868740#6" type="passenger"/>
    <trip id="129" depart="129.00" from="-390776384#1" to="396067910#16" type="passenger"/>
    <trip id="130" depart="130.00" from="-49239939#1" to="112571164#0" type="passenger"/>
    <trip id="131" depart="131.00" from="443832372#6" to="-813303975#0" type="passenger"/>
    <trip id="132" depart="132.00" from="686469802#7" to="-136050617#0" type="passenger"/>
    <trip id="133" depart="133.00" from="-112571165#1" to="95895495#0" type="passenger"/>
    <trip id="134" depart="134.00" from="30964625#1" to="-49381243#4" type="passenger"/>
    <trip id="135" depart="135.00" from="-396067915#2" to="-49381243#2" type="passenger"/>
    <trip id="136" depart="136.00" from="238961507#1" to="570106176" type="passenger"/>
    <trip id="137" depart="137.00" from="-44617694#1" to="-654233238" type="passenger"/>
    <trip id="138" depart="138.00" from="112571146#2" to="396195856#1" type="passenger"/>
    <trip id="139" depart="139.00" from="399711231#2" to="391000055#5" type="passenger"/>
    <trip id="140" depart="140.00" from="438006971" to="48846508#4" type="passenger"/>
    <trip id="141" depart="141.00" from="-49239928#6" to="704505455#0" type="passenger"/>
    <trip id="142" depart="142.00" from="162438566#4" to="-44660064#1" type="passenger"/>
    <trip id="143" depart="143.00" from="30771959#4" to="396220343#7" type="passenger"/>
    <trip id="144" depart="144.00" from="-30967936#5" to="49236334" type="passenger"/>
    <trip id="145" depart="145.00" from="-49236356" to="812680083" type="passenger"/>
    <trip id="146" depart="146.00" from="48828673#0" to="145298461#2" type="passenger"/>
    <trip id="147" depart="147.00" from="131398241" to="31263337#1" type="passenger"/>
    <trip id="148" depart="148.00" from="-48826202" to="31263342" type="passenger"/>
    <trip id="149" depart="149.00" from="-49381246" to="813962437#2" type="passenger"/>
    <trip id="150" depart="150.00" from="48846508#2" to="44617692#4" type="passenger"/>
    <trip id="151" depart="151.00" from="396464770#0" to="777963554#1" type="passenger"/>
    <trip id="152" depart="152.00" from="-396067910#8" to="396464768#0" type="passenger"/>
    <trip id="153" depart="153.00" from="396232538#3" to="49236356" type="passenger"/>
    <trip id="154" depart="154.00" from="48828242#1" to="80338679#1" type="passenger"/>
    <trip id="155" depart="155.00" from="-48828795#1" to="112571146#2" type="passenger"/>
    <trip id="156" depart="156.00" from="886563422#0" to="80339001#4" type="passenger"/>
    <trip id="157" depart="157.00" from="-49239939#1" to="165886068#3" type="passenger"/>
    <trip id="158" depart="158.00" from="-396067910#6" to="396213763#2" type="passenger"/>
    <trip id="159" depart="159.00" from="-396067910#20" to="30967917#1" type="passenger"/>
    <trip id="160" depart="160.00" from="31312963#0" to="777962820#2" type="passenger"/>
    <trip id="161" depart="161.00" from="831787975" to="160892855#0" type="passenger"/>
    <trip id="162" depart="162.00" from="396067915#2" to="133747106#2" type="passenger"/>
    <trip id="163" depart="163.00" from="-30967938#0" to="-396220339#0" type="passenger"/>
    <trip id="164" depart="164.00" from="44617692#6" to="30964625#10" type="passenger"/>
    <trip id="165" depart="165.00" from="49239928#4" to="31312702" type="passenger"/>
    <trip id="166" depart="166.00" from="48846309" to="-48623153#1" type="passenger"/>
    <trip id="167" depart="167.00" from="48828675" to="30765325#1" type="passenger"/>
    <trip id="168" depart="168.00" from="396464769#0" to="662246625" type="passenger"/>
    <trip id="169" depart="169.00" from="45744093#0" to="-99876019" type="passenger"/>
    <trip id="170" depart="170.00" from="396067910#11" to="48846492#1" type="passenger"/>
    <trip id="171" depart="171.00" from="136050615#1" to="80338679#0" type="passenger"/>
    <trip id="172" depart="172.00" from="-44474503#3" to="704505455#1" type="passenger"/>
    <trip id="173" depart="173.00" from="397323277#1" to="160892849#2" type="passenger"/>
    <trip id="174" depart="174.00" from="-390775705" to="443832372#9" type="passenger"/>
    <trip id="175" depart="175.00" from="886563422#0" to="49381233#2" type="passenger"/>
    <trip id="176" depart="176.00" from="778020707#0" to="396220343#3" type="passenger"/>
    <trip id="177" depart="177.00" from="49381231#4" to="-112571147#3" type="passenger"/>
    <trip id="178" depart="178.00" from="-49236330#0" to="-83631585#0" type="passenger"/>
    <trip id="179" depart="179.00" from="778870284" to="354120398#2" type="passenger"/>
    <trip id="180" depart="180.00" from="-390864752" to="165886068#3" type="passenger"/>
    <trip id="181" depart="181.00" from="-49381230#3" to="48826786#2" type="passenger"/>
    <trip id="182" depart="182.00" from="391000055#4" to="86250163" type="passenger"/>
    <trip id="183" depart="183.00" from="165886060" to="777963554#1" type="passenger"/>
    <trip id="184" depart="184.00" from="48623153#1" to="80339001#6" type="passenger"/>
    <trip id="185" depart="185.00" from="-48846367" to="48846380#2" type="passenger"/>
    <trip id="186" depart="186.00" from="48846502#0" to="-49381243#5" type="passenger"/>
    <trip id="187" depart="187.00" from="30967936#5" to="396232537" type="passenger"/>
    <trip id="188" depart="188.00" from="443832372#7" to="570123666#1" type="passenger"/>
    <trip id="189" depart="189.00" from="-48846522" to="578705375#1" type="passenger"/>
    <trip id="190" depart="190.00" from="810908631" to="44936327#2" type="passenger"/>
    <trip id="191" depart="191.00" from="44474503#2" to="443832372#5" type="passenger"/>
    <trip id="192" depart="192.00" from="-49239928#0" to="76743738" type="passenger"/>
    <trip id="193" depart="193.00" from="396067910#20" to="-686469802#2" type="passenger"/>
    <trip id="194" depart="194.00" from="49236335" to="406255153#1" type="passenger"/>
    <trip id="195" depart="195.00" from="397323277#0" to="112571146#8" type="passenger"/>
    <trip id="196" depart="196.00" from="112571154#1" to="49239922#2" type="passenger"/>
    <trip id="197" depart="197.00" from="30765305#2" to="396232538#6" type="passenger"/>
    <trip id="198" depart="198.00" from="30967937#1" to="131510693#2" type="passenger"/>
    <trip id="199" depart="199.00" from="48846300" to="78804660#0" type="passenger"/>
    <trip id="200" depart="200.00" from="-396067910#8" to="31312645#0" type="passenger"/>
    <trip id="201" depart="201.00" from="-660079821#1" to="396213760#1" type="passenger"/>
    <trip id="202" depart="202.00" from="812654517#0" to="30967931#2" type="passenger"/>
    <trip id="203" depart="203.00" from="-807012494#0" to="777958275#0" type="passenger"/>
    <trip id="204" depart="204.00" from="-812662182#1" to="48846483#3" type="passenger"/>
    <trip id="205" depart="205.00" from="-48846483#1" to="438006986#1" type="passenger"/>
    <trip id="206" depart="206.00" from="48846492#0" to="711652467#0" type="passenger"/>
    <trip id="207" depart="207.00" from="99624822" to="802046967" type="passenger"/>
    <trip id="208" depart="208.00" from="-899156466#1" to="49381263" type="passenger"/>
    <trip id="209" depart="209.00" from="99876019" to="-693511193#1" type="passenger"/>
    <trip id="210" depart="210.00" from="49381231#1" to="-808158164#0" type="passenger"/>
    <trip id="211" depart="211.00" from="48846301#1" to="-490349862#1" type="passenger"/>
    <trip id="212" depart="212.00" from="160892849#1" to="354120397#0" type="passenger"/>
    <trip id="213" depart="213.00" from="44474503#1" to="-48846315#1" type="passenger"/>
    <trip id="214" depart="214.00" from="-49236357#0" to="396067910#8" type="passenger"/>
    <trip id="215" depart="215.00" from="-99624828#2" to="354120398#2" type="passenger"/>
    <trip id="216" depart="216.00" from="-812654517#1" to="-807322931" type="passenger"/>
    <trip id="217" depart="217.00" from="-165886068#3" to="-45051007#0" type="passenger"/>
    <trip id="218" depart="218.00" from="-396220339#1" to="711652467#0" type="passenger"/>
    <trip id="219" depart="219.00" from="49381231#1" to="-48826801#0" type="passenger"/>
    <trip id="220" depart="220.00" from="-456581895#0" to="812693154#2" type="passenger"/>
    <trip id="221" depart="221.00" from="48846524#1" to="451637216#1" type="passenger"/>
    <trip id="222" depart="222.00" from="396060105#5" to="44936304#2" type="passenger"/>
    <trip id="223" depart="223.00" from="49051165#0" to="778346821" type="passenger"/>
    <trip id="224" depart="224.00" from="686469802#9" to="686469802#7" type="passenger"/>
    <trip id="225" depart="225.00" from="49285971#1" to="-48828795#2" type="passenger"/>
    <trip id="226" depart="226.00" from="396060105#1" to="-354120403#0" type="passenger"/>
    <trip id="227" depart="227.00" from="396213760#5" to="30967569#0" type="passenger"/>
    <trip id="228" depart="228.00" from="49239922#0" to="44617693" type="passenger"/>
    <trip id="229" depart="229.00" from="162031071#1" to="131510693#1" type="passenger"/>
    <trip id="230" depart="230.00" from="44473099#0" to="-396067910#16" type="passenger"/>
    <trip id="231" depart="231.00" from="48846524#0" to="456581895#2" type="passenger"/>
    <trip id="232" depart="232.00" from="-48846492#5" to="474675239#1" type="passenger"/>
    <trip id="233" depart="233.00" from="-49236338#1" to="-44617692#0" type="passenger"/>
    <trip id="234" depart="234.00" from="-112571158#2" to="112571154#0" type="passenger"/>
    <trip id="235" depart="235.00" from="30964625#10" to="391000055#2" type="passenger"/>
    <trip id="236" depart="236.00" from="48828683#1" to="-44617694#0" type="passenger"/>
    <trip id="237" depart="237.00" from="30765317#7" to="-396220344" type="passenger"/>
    <trip id="238" depart="238.00" from="-112571147#3" to="-390864728#1" type="passenger"/>
    <trip id="239" depart="239.00" from="886563423#2" to="407836307#1" type="passenger"/>
    <trip id="240" depart="240.00" from="30765305#5" to="-162476749#0" type="passenger"/>
    <trip id="241" depart="241.00" from="49381225#0" to="-48828673#1" type="passenger"/>
    <trip id="242" depart="242.00" from="30967917#1" to="-812654517#1" type="passenger"/>
    <trip id="243" depart="243.00" from="30967938#6" to="-78804677#0" type="passenger"/>
    <trip id="244" depart="244.00" from="-397307498#3" to="396060105#20" type="passenger"/>
    <trip id="245" depart="245.00" from="-165886069#1" to="396067910#3" type="passenger"/>
    <trip id="246" depart="246.00" from="-812662182#0" to="474375214#0" type="passenger"/>
    <trip id="247" depart="247.00" from="-160892849#0" to="162031068" type="passenger"/>
    <trip id="248" depart="248.00" from="145298461#3" to="-397307498#4" type="passenger"/>
    <trip id="249" depart="249.00" from="49236345#1" to="30964625#3" type="passenger"/>
    <trip id="250" depart="250.00" from="686469802#12" to="-99624828#0" type="passenger"/>
    <trip id="251" depart="251.00" from="44706459#3" to="30967938#4" type="passenger"/>
    <trip id="252" depart="252.00" from="44936327#10" to="-30967936#12" type="passenger"/>
    <trip id="253" depart="253.00" from="396213760#5" to="-396213764#1" type="passenger"/>
    <trip id="254" depart="254.00" from="812662183#1" to="773191680" type="passenger"/>
    <trip id="255" depart="255.00" from="30967917#7" to="-812662182#5" type="passenger"/>
    <trip id="256" depart="256.00" from="162438556#0" to="31221696#2" type="passenger"/>
    <trip id="257" depart="257.00" from="812693154#0" to="354120402#0" type="passenger"/>
    <trip id="258" depart="258.00" from="49239923#0" to="-813303975#1" type="passenger"/>
    <trip id="259" depart="259.00" from="474375214#1" to="-354120402#0" type="passenger"/>
    <trip id="260" depart="260.00" from="48846315#0" to="812680083" type="passenger"/>
    <trip id="261" depart="261.00" from="44936327#4" to="808158164#0" type="passenger"/>
    <trip id="262" depart="262.00" from="-569868740#6" to="-390775715#0" type="passenger"/>
    <trip id="263" depart="263.00" from="30765325#5" to="162438566#2" type="passenger"/>
    <trip id="264" depart="264.00" from="49381243#4" to="-112571168" type="passenger"/>
    <trip id="265" depart="265.00" from="238961507#2" to="-49236324#1" type="passenger"/>
    <trip id="266" depart="266.00" from="-812662182#2" to="30964625#13" type="passenger"/>
    <trip id="267" depart="267.00" from="44660063" to="354120397#0" type="passenger"/>
    <trip id="268" depart="268.00" from="133747105" to="-49239928#0" type="passenger"/>
    <trip id="269" depart="269.00" from="-44617692#5" to="886563423#4" type="passenger"/>
    <trip id="270" depart="270.00" from="-95895495#0" to="160892853" type="passenger"/>
    <trip id="271" depart="271.00" from="-48826205#1" to="-78804677#0" type="passenger"/>
    <trip id="272" depart="272.00" from="49381234#0" to="30967938#6" type="passenger"/>
    <trip id="273" depart="273.00" from="48846294#0" to="-48828673#0" type="passenger"/>
    <trip id="274" depart="274.00" from="778870118#1" to="-622327684" type="passenger"/>
    <trip id="275" depart="275.00" from="-49239939#1" to="48826203" type="passenger"/>
    <trip id="276" depart="276.00" from="30967936#3" to="95895495#2" type="passenger"/>
    <trip id="277" depart="277.00" from="30967936#7" to="396220339#2" type="passenger"/>
    <trip id="278" depart="278.00" from="-813962437#1" to="162438566#0" type="passenger"/>
    <trip id="279" depart="279.00" from="48846492#0" to="354120398#0" type="passenger"/>
    <trip id="280" depart="280.00" from="396067910#11" to="-112571165#0" type="passenger"/>
    <trip id="281" depart="281.00" from="396195870" to="48846321" type="passenger"/>
    <trip id="282" depart="282.00" from="112571146#3" to="49051170#1" type="passenger"/>
    <trip id="283" depart="283.00" from="396232538#6" to="-778870118#0" type="passenger"/>
    <trip id="284" depart="284.00" from="-396067910#1" to="-83631585#0" type="passenger"/>
    <trip id="285" depart="285.00" from="31312963#0" to="-778906706" type="passenger"/>
    <trip id="286" depart="286.00" from="44936327#5" to="-30967936#4" type="passenger"/>
    <trip id="287" depart="287.00" from="-48846315#1" to="49381225#1" type="passenger"/>
    <trip id="288" depart="288.00" from="391000055#2" to="162476749#0" type="passenger"/>
    <trip id="289" depart="289.00" from="812662183#3" to="704505455#0" type="passenger"/>
    <trip id="290" depart="290.00" from="136050614" to="-49381233#2" type="passenger"/>
    <trip id="291" depart="291.00" from="-48846524#1" to="49381234#1" type="passenger"/>
    <trip id="292" depart="292.00" from="-812662182#2" to="354120399#1" type="passenger"/>
    <trip id="293" depart="293.00" from="-49381230#4" to="-390775714#0" type="passenger"/>
    <trip id="294" depart="294.00" from="-569868740#4" to="49236324#0" type="passenger"/>
    <trip id="295" depart="295.00" from="145298461#3" to="49236317#2" type="passenger"/>
    <trip id="296" depart="296.00" from="-49381230#5" to="656631019#0" type="passenger"/>
    <trip id="297" depart="297.00" from="-49236345#4" to="-778820630#1" type="passenger"/>
    <trip id="298" depart="298.00" from="812654517#3" to="49236345#1" type="passenger"/>
    <trip id="299" depart="299.00" from="-49381233#1" to="180396083" type="passenger"/>
</routes>
