<?xml version="1.0" encoding="UTF-8"?>

<!-- generated on Mon Mar 15 14:30:59 2021 by Eclipse SUMO duarouter Version 1.1.0
<configuration xmlns:xsi="http://www.w3.org/2001/XMLSchema-instance" xsi:noNamespaceSchemaLocation="http://sumo.dlr.de/xsd/duarouterConfiguration.xsd">

    <input>
        <net-file value="map.net.xml"/>
        <route-files value="passenger_trips.xml"/>
    </input>

    <output>
        <output-file value="passenger_routes.rou.xml"/>
        <alternatives-output value="passenger_routes.rou.alt.xml"/>
    </output>

    <time>
        <begin value="0"/>
        <end value="300.0"/>
    </time>

    <report>
        <no-warnings value="true"/>
        <ignore-errors value="true"/>
        <no-step-log value="true"/>
    </report>

</configuration>
-->

<routes xmlns:xsi="http://www.w3.org/2001/XMLSchema-instance" xsi:noNamespaceSchemaLocation="http://sumo.dlr.de/xsd/routes_file.xsd">
    <vType id="passenger" vClass="passenger" color="white"/>
    <vehicle id="pass0" type="passenger" depart="0.00">
        <route edges="812693154#0 -812693154#0 660083128 -812693150 48846523 30967938#2 30967938#3 30967938#4 30967938#5 30967938#6 30967938#7 30967938#8 30967938#9 30967938#10 30967938#11 30967938#12 396067915#0 396067915#1 396067915#2 396067915#3 44617694#0 44617694#1 112571163 -396067910#23 -396067910#22 -396067910#21 -396067910#20 49236331#0 49236331#1 49236334 396195860 396195856#0 49236338#0 49236339#0 812654514 49236339#2"/>
    </vehicle>
    <vehicle id="pass1" type="passenger" depart="1.00">
        <route edges="-144765730 145303050#2 -49236357#1 -49236357#0 49236348#1 396067910#12 396067910#13 396067910#14 396067910#15 396067910#16 396067910#17 396067910#18 396067910#19 49236331#0 49236331#1 49236331#2 49236336#0 49236336#1 49236341 145307509 49239922#0 49239922#1"/>
    </vehicle>
    <vehicle id="pass2" type="passenger" depart="2.00">
        <route edges="558870795#0 558870795#1 30967916 30765305#5 30765305#6 30765305#7 30765305#8 30765305#9 30765305#10 30765305#11 30765305#12 30765305#13 30765305#14 162031059 558877178 812662184 136299032#0 136299032#1 136299032#2 136299032#3 136299032#4 136299032#5 136299032#6 48828888#0 48828888#1 48828888#2 48828888#3 569868740#0 569868740#1 569868740#2 569868740#3 474375214#0 474375214#1 474375214#2 45744093#0 45744093#1 807002511 396213760#0 396213760#1 396213760#2 396213760#3 396213760#4 396213760#5 396213760#6 886563422#0 886563422#1 886563422#2 886563422#3 886563422#4 31263337#0 31263337#1 396232538#2 396232538#3 31263361#0 31263361#1 396220343#0 396220343#1 396220343#2 396220343#3 396220343#4"/>
    </vehicle>
    <vehicle id="pass3" type="passenger" depart="3.00">
        <route edges="399711231#2 399711231#3 396213764#0 396213764#1 396213764#2 396213764#3 391000055#4 391000055#5 391000055#6 391000055#7 391000055#8 44936304#0 44936304#1 44936304#2 112571165#2 112571165#3 407836307#0 407836307#1 407836307#2 407836307#3 407836307#4 407836307#5 30967938#0 30967938#1 30967938#2 30967938#3 30967938#4 30967938#5 30967938#6 30967938#7 30967938#8 30967938#9 30967938#10 30967938#11 30967938#12 396067915#0 396067915#1 396067915#2 396067915#3 44617694#0 44617694#1 112571163 -396067910#23 -396067910#22 -396067910#21 -396067910#20 396067910#20"/>
    </vehicle>
    <vehicle id="pass4" type="passenger" depart="4.00">
        <route edges="424668928#0 -424668928#0 -30989254 -397307498#6 -397307498#5 -397307498#4 -397307498#3 -397307498#2 -397307498#1 -397307498#0 -438006981#2 -438006981#1 -438006981#0 165886062 30771950#1 30771950#2 112571145 112571165#0 112571165#1 112571165#2 112571165#3 407836307#0 407836307#1 407836307#2 407836307#3 407836307#4 407836307#5 30967938#0 30967938#1 30967938#2 30967938#3 30967938#4 30967938#5 30967938#6 30967938#7 30967938#8 30967938#9 30967938#10 30967938#11 30967938#12 396067915#0 396067915#1 396067915#2 396067915#3 44617695 354120398#1 354120398#2 354120398#3"/>
    </vehicle>
    <vehicle id="pass5" type="passenger" depart="5.00">
        <route edges="-396067910#14 396067910#14 396067910#15 396067910#16 396067910#17 396067910#18 396067910#19 396067910#20 396067910#21 396067910#22 396067910#23 -112571163 -44617694#1 -44617694#0 44617695 354120398#1 354120398#2 354120398#3 354120398#4 354120398#5 354120398#6 44617691#0 44617691#1 -44617692#7 -44617692#6 -44617692#5 -44617692#4 -44617692#3 -44617692#2 -44617692#1 -44617692#0 30765305#0 30765305#1 30765305#2 30765305#3 30765305#4 30765305#5 30765305#6 30765305#7 30765305#8 30765305#9 30765305#10 30765305#11 30765305#12 30765305#13 30765305#14 162031059 558877178 812662184 136299032#0 136299032#1 136299032#2 136299032#3 136299032#4 136299032#5 136299032#6 48828888#0 48828888#1 48828888#2 48828888#3 569868740#0 569868740#1 569868740#2 569868740#3 474375214#0 474375214#1 474375214#2 45744093#0 45744093#1 807002511 396213760#0 396213760#1 396213760#2 396213760#3 396213760#4 396213760#5 396213760#6 886563422#0 886563422#1 48828229 396232534"/>
    </vehicle>
    <vehicle id="pass6" type="passenger" depart="6.00">
        <route edges="194482841 -396195856#1 -396195856#0 -396195860 -49236334 -49236331#1 -49236331#0 396067910#20 396067910#21 396067910#22 396067910#23 -112571163 -44617694#1 -44617694#0 -396067915#3 -396067915#2 -396067915#1 -396067915#0 -30967938#12 -30967938#11 -30967938#10 -30967938#9 -30967938#8 -30967938#7 -30967938#6 -30967938#5 -30967938#4 -30967938#3 -30967938#2 -30967938#1 -30967938#0 778885879#0 778885879#1 778885879#2 778885879#3 778885879#4 -112571165#3 -112571165#2 -112571165#1 -112571165#0 -112571145 -30771950#2 397307501#0 397307501#1 48846380#3 48846380#4 48846380#5 391000058 396232538#0 396232538#1 396232538#2 396232538#3 31263361#0 31263361#1 396220343#0 136035857"/>
    </vehicle>
    <vehicle id="pass7" type="passenger" depart="7.00">
        <route edges="-49239928#4 49239928#4 49236324#0 49236324#1 -813962437#3 -813962437#2 -813962437#1 -813962437#0 49236317#0 49236317#1 49236317#2 49236317#3 49236317#4 396067910#22 396067910#23 -112571163 -44617694#1 -44617694#0 44617695 354120398#1 354120398#2 354120398#3 354120398#4 354120398#5 354120398#6 44617691#0 44617691#1 -44617692#7 -44617692#6 -44617692#5 -44617692#4 -44617692#3 -44617692#2 -44617692#1 -44617692#0 30765305#0 30765305#1 30765305#2 30765305#3 30765305#4 30765305#5 30765305#6 30765305#7 30765305#8 30765305#9 30765305#10 30765305#11 30765305#12 30765305#13 30765305#14 162031059 558877178 812662184 136299032#0 136299032#1 136299032#2 136299032#3 136299032#4 136299032#5 136299032#6 238961507#0"/>
    </vehicle>
    <vehicle id="pass8" type="passenger" depart="8.00">
        <route edges="31263337#0 31263337#1 396232538#2 396232538#3 31263361#0 31263361#1 396220343#0 396220343#1 396220343#2 136035858 136035855#0 136035855#1 -131398241 44706459#0 44706459#1 44706459#2 44706459#3 44706459#4 778024065 474474477#0 474474477#1 -397307498#6 -397307498#5 -397307498#4 -397307498#3 -397307498#2 -397307498#1 -397307498#0 -438006981#2 -438006981#1 -438006981#0 165886062 30771950#1 30771950#2 112571145 112571165#0 112571165#1 -48846530#2 -48846530#1 -48846530#0 112571154#2 112571154#3 112571146#2 112571146#3 112571146#4 112571146#5 112571146#6 112571146#7 112571146#8 396464770#0 396464770#1 30967849#0 30967849#1 396464768#0 396464768#1 30765299 354129651#0 354129651#1 112571156#0 812629546 31312839#0 31312839#1 31312839#2 31312839#3 31312839#4 456581892 456581895#0 456581895#1"/>
    </vehicle>
    <vehicle id="pass9" type="passenger" depart="9.00">
        <route edges="569868740#12 -569868740#12 -569868740#11 -569868740#10 -569868740#9 -569868740#8 -569868740#7 -569868740#6 -569868740#5 -569868740#4 474375214#0 474375214#1"/>
    </vehicle>
    <vehicle id="pass10" type="passenger" depart="10.00">
        <route edges="-44617694#0 -396067915#3 -396067915#2 -396067915#1 -396067915#0 -30967938#12 -30967938#11 -30967938#10 -30967938#9 -30967938#8 -30967938#7 -30967938#6 -30967938#5 -30967938#4 -30967938#3 -30967938#2 -30967938#1 -30967938#0 778885879#0 778885879#1 778885879#2 778885879#3 778885879#4 -112571165#3 -112571165#2 -112571165#1 44936305#0 44936305#1"/>
    </vehicle>
    <vehicle id="pass11" type="passenger" depart="11.00">
        <route edges="-49285989#1 -49285989#0 561697768 354120397#1 44660063 396060105#5 396060105#6 396060105#7 396060105#8 396060105#9 396060105#10 396060105#11 396060105#12 396060105#13 396060105#14 396060105#15 396060105#16 396060105#17 396060105#18 396060105#19 396060105#20 802167823#0 802167823#1 802042426 626275717 802042428#0 802042428#1 44660064#0 44660064#1 778906703 396067910#21 396067910#22 396067910#23 -112571163 -44617694#1 -44617694#0 -396067915#3 -396067915#2 -396067915#1 -396067915#0 -30967938#12 -30967938#11 -30967938#10 -30967938#9 -30967938#8 -30967938#7 -30967938#6 -30967938#5 -30967938#4 -30967938#3 -30967938#2 -30967938#1 -30967938#0 778885879#0 778885879#1 778885879#2 778885879#3 778885879#4 -112571165#3 -112571165#2 -112571165#1 -112571165#0 -112571145 -30771950#2 397307501#0 397307501#1 48846380#3 48846380#4 48846380#5 391000058 396232538#0 31263315#0 31263315#1 391000055#1 391000055#2 391000055#3 391000055#4 391000055#5 136049840"/>
    </vehicle>
    <vehicle id="pass12" type="passenger" depart="12.00">
        <route edges="-686469802#10 686469802#10 686469802#11 773191680 30967917#0 30967917#1 30967917#2 30967917#3 30967917#4 30967917#5 30967917#6 30967917#7 30967917#8 558870795#0 558870795#1 558870795#2 558870795#3 558870795#4 558870795#5 44617692#0 44617692#1 44617692#2 44617692#3 44617692#4 44617692#5 -693511193#2 -693511193#1 -693511193#0 -162438556#1 -162438556#0 354120398#2 162031071#0 162031071#1 802064026#0 778906705 -812629547#1 -812629547#0 -396067910#22 -396067910#21 -396067910#20 49236331#0 49236331#1 49236334 396195860 396195856#0 396195856#1 49236345#0 49236345#1 -812654517#4 -812654517#3 -812654517#2 -812654517#1 -812654517#0"/>
    </vehicle>
    <vehicle id="pass13" type="passenger" depart="13.00">
        <route edges="812662183#2 812662183#3 812662183#4 443832372#0 136050614 136299032#6 48828888#0 48828888#1 48828888#2 48828888#3 569868740#0 569868740#1 569868740#2 569868740#3 474375214#0 474375214#1 474375214#2 45744093#0 45744093#1 807002511 396213760#0 396213760#1 396213760#2 396213760#3 396213760#4 396213760#5 396213760#6 886563422#0 886563422#1 886563422#2 886563422#3 886563422#4 31263337#0 31263337#1 396232538#2 396232538#3 31263361#0 31263361#1 396220343#0 396220343#1 396220343#2 136035858 136035855#0 136035855#1 -131398241 131398241"/>
    </vehicle>
    <vehicle id="pass14" type="passenger" depart="14.00">
        <route edges="396067910#4 396067910#5 396067910#6 396067910#7 396067910#8 396067910#9 396067910#10 396067910#11 396067910#12 396067910#13 396067910#14 396067910#15 396067910#16 396067910#17 396067910#18 396067910#19 396067910#20 396067910#21 396067910#22 396067910#23 -112571163 -44617694#1 -44617694#0 44617695 354120398#1 354120398#2 354120398#3 354120398#4 354120398#5 354120398#6 44617691#0 44617691#1 -44617692#7 -44617692#6 -44617692#5 -44617692#4 -44617692#3 -44617692#2 -44617692#1 -44617692#0 44617692#0"/>
    </vehicle>
    <vehicle id="pass15" type="passenger" depart="15.00">
        <route edges="396220343#5 396220343#6 396220343#7 396220343#8 396220342 126982581#0 126982581#1 886563423#0 886563423#1 886563423#2 886563423#3 886563423#4 886563423#5 886563422#0 886563422#1 886563422#2 886563422#3 886563422#4 391000055#0 391000055#1 391000055#2 391000055#3 391000055#4 391000055#5 391000055#6 391000055#7 391000055#8 44936304#0 44936304#1 44936304#2 -112571165#1 -112571165#0 -112571145 -30771950#2 -30771950#1 -30771950#0 -95895495#2 -95895495#1 -95895495#0 -95895493#1 -95895493#0 -490349862#2 -490349862#1 78804660#0 78804677#0"/>
    </vehicle>
    <vehicle id="pass16" type="passenger" depart="16.00">
        <route edges="552181317 -48828795#1 -144946625 45051007#3 778580460 396213764#0 396213764#1 396213764#2 396213764#3 391000055#4 391000055#5 391000055#6 391000055#7 391000055#8 44936304#0 44936304#1 44936304#2 112571165#2 112571165#3 407836307#0 407836307#1 407836307#2 778885880 49381243#0 49381243#1 49381243#2 49381243#3 49381243#4 49381243#5 49381243#6 49381243#7 49381243#8 -49381230#5 -49381230#4"/>
    </vehicle>
    <vehicle id="pass17" type="passenger" depart="17.00">
        <route edges="-165886069#0 165886069#0 48846294#0 48846294#1 30765325#2 30765325#3 30765325#4 30765325#5 30765325#6 30765325#7 30765325#8 354120399#0 354120399#1 31313292 112571146#0 112571146#1 112571146#2 112571146#3 112571146#4 112571146#5 112571146#6 112571146#7 112571146#8 396464770#0 396464770#1 396464769#0 396464769#1 354120398#0 354120398#1 354120398#2 354120398#3 354120398#4 354120398#5 354120398#6 44617691#0 44617691#1 -44617692#7 -44617692#6 -44617692#5 -44617692#4 -44617692#3 -44617692#2 -44617692#1 -44617692#0 30765305#0 30765305#1 30765305#2 30765305#3 30765305#4 30765305#5 30765305#6 30765305#7 30765305#8 30765305#9 30765305#10 30765305#11 30765305#12 30765305#13 30765305#14 30765305#15 30765305#16 30765305#17 -686469802#12 -686469802#11 -686469802#10 -686469802#9 -686469802#8 -686469802#7 -686469802#6 -686469802#5 -686469802#4 -686469802#3 686469802#3"/>
    </vehicle>
    <vehicle id="pass18" type="passenger" depart="18.00">
        <route edges="-80339001#1 80339001#1 80339001#2 80339001#3 80339001#4 80339001#5 80339001#6 145298461#0 145298461#1 145298461#2 145298461#3 -354120402#3 -354120402#2 -354120402#1 561697768 354120397#1 44660063 396060105#5 396060105#6 396060105#7 396060105#8 396060105#9 396060105#10 396060105#11 396060105#12 396060105#13 396060105#14 396060105#15 396060105#16 396060105#17 396060105#18 396060105#19 396060105#20 802167823#0 802167823#1 802042426 626275717 802042428#0 802042428#1 44660064#0 44660064#1 778906703 396067910#21 396067910#22 396067910#23 -112571163 -44617694#1 -44617694#0 -396067915#3 -396067915#2 -396067915#1 -396067915#0 -30967938#12 -30967938#11 -30967938#10 -30967938#9 -30967938#8 -30967938#7 -30967938#6 -30967938#5 -30967938#4 -30967938#3 -30967938#2 -30967938#1 -30967938#0 778885879#0 778885879#1 778885879#2 778885879#3 778885879#4 -112571165#3 -112571165#2 -112571165#1 -112571165#0 -112571145 -30771950#2 -30771950#1"/>
    </vehicle>
    <vehicle id="pass19" type="passenger" depart="19.00">
        <route edges="165886060 438006981#0 438006981#1 438006981#2 397307498#0 397307498#1 397307498#2 397307498#3 397307498#4 397307498#5 48846316#0 48846316#1 48846316#2 48846316#3 48846316#4 396220343#2 396220343#3 396220343#4 396220343#5 396220343#6 396220343#7 396220343#8 396220342 126982581#0 126982581#1 886563423#0 886563423#1 886563423#2 886563423#3 474675239#0 474675239#1 474675239#2 474675239#3 -45744093#1 -45744093#0 474375215#0 474375215#1 474375215#2 474375215#3 -569868740#5 -569868740#4 -569868740#3 -569868740#2 704505455#0"/>
    </vehicle>
    <vehicle id="pass20" type="passenger" depart="20.00">
        <route edges="778820630#1 -778820630#1 -76743738 -112571168 -76750151 -396229580#0 810908631 30765325#4 30765325#5 30765325#6 30765325#7 30765325#8 354120399#0 354120399#1 31313292 112571146#0 112571146#1 112571146#2 112571146#3 112571146#4 112571146#5 112571146#6 112571146#7 112571146#8 396464770#0 396464770#1 30967849#0 30967849#1 396464768#0 396464768#1 30765299 354129651#0 354129651#1 112571156#0 112571156#1 112571156#2 30967848#0 112571164#0 112571164#1 112571164#2"/>
    </vehicle>
    <vehicle id="pass21" type="passenger" depart="21.00">
        <route edges="48828888#0 812662179 812662183#3 812662183#4 443832372#0 443832372#1 443832372#2 443832372#3 443832372#4 443832372#5 443832372#6 443832372#7 443832372#8 443832372#9 -812662182#6 -812662182#5 -812662182#4 -812662182#3 -812662182#2 -812662182#1 -812662182#0 162031058 30967917#0 30967917#1 30967917#2 30967917#3 30967917#4 30967917#5 30967917#6 30967917#7 30967917#8 558870795#0 558870795#1 558870795#2 558870795#3 558870795#4 558870795#5 44617692#0 44617692#1 44617692#2 44617692#3 44617692#4 44617692#5 -693511193#2 -693511193#1 -693511193#0 -162438556#1 -162438556#0 354120398#2 162031071#0 162031071#1 802064026#0 802064026#1"/>
    </vehicle>
    <vehicle id="pass22" type="passenger" depart="22.00">
        <route edges="112571165#1 112571165#2 112571165#3 407836307#0 407836307#1 407836307#2 407836307#3 407836307#4 407836307#5 30967938#0 30967938#1 30967938#2 30967938#3 30967938#4 30967938#5 30967938#6 30967938#7 30967938#8 30967938#9 30967938#10 30967938#11 30967938#12 396067915#0 396067915#1 396067915#2 396067915#3 44617694#0 44617694#1 112571163 -396067910#23 -396067910#22 -396067910#21 -396067910#20 49236331#0 49236331#1 49236334 396195860 396195856#0 396195856#1 49236345#0 49236345#1 -49236345#1"/>
    </vehicle>
    <vehicle id="pass23" type="passenger" depart="23.00">
        <route edges="-31312839#4 -31312839#3 -31312839#2 -31312839#1 -31312839#0 778885882#0 778885882#1 30967848#0 30967848#1 30967848#2 396464770#0 396464770#1 396464769#0 396464769#1 354120398#0 354120398#1 354120398#2 354120398#3 354120398#4 354120398#5 354120398#6 44617691#0 44617691#1 -44617692#7 -44617692#6 -44617692#5 -44617692#4 -44617692#3 -44617692#2 -44617692#1 -44617692#0 30765305#0 30765305#1 30765305#2 30765305#3 30765305#4 30765305#5 30765305#6 30765305#7 30765305#8 30765305#9 30765305#10 30765305#11 30765305#12 30765305#13 30765305#14 162031059 558877178 812662184 136299032#0 136299032#1 136299032#2 136299032#3 136299032#4 136299032#5 136299032#6 48828888#0 48828888#1 48828888#2 48828888#3 812662183#0 812662183#1"/>
    </vehicle>
    <vehicle id="pass24" type="passenger" depart="24.00">
        <route edges="-366400710 -160892854#0 -48846317 -397307498#3 -397307498#2 -397307498#1 -397307498#0 -438006981#2 -438006981#1 -438006981#0 165886062 30771950#1 30771950#2 112571145 112571165#0 44936305#0 44936305#1 30771959#1 30771959#2 30771959#3 112571144#0"/>
    </vehicle>
    <vehicle id="pass25" type="passenger" depart="25.00">
        <route edges="569868740#2 569868740#3 474375214#0 474375214#1 474375214#2 45744093#0 45744093#1 807002511 396213760#0 396213760#1 396213760#2 396213760#3 396213760#4 396213760#5 396213760#6 886563422#0 886563422#1 886563422#2 886563422#3 886563422#4 31263337#0 31263337#1 396232538#2 396232538#3 31263361#0 31263361#1 396220343#0 396220343#1 396220343#2 136035858 136035855#0 136035855#1 -131398241 44706459#0 44706459#1 44706459#2 44706459#3 44706459#4 778024065 474474477#0 474474477#1 -397307498#6 -397307498#5 -397307498#4 -397307498#3 -397307498#2 -397307498#1 -397307498#0 -438006981#2"/>
    </vehicle>
    <vehicle id="pass26" type="passenger" depart="26.00">
        <route edges="-48846530#0 112571154#2 112571154#3 112571146#2 112571146#3 112571146#4 112571146#5 112571146#6 112571146#7 112571146#8 396464770#0 396464770#1 396464769#0 396464769#1 354120398#0 354120398#1 354120398#2 354120398#3 354120398#4 354120398#5 354120398#6 44617691#0 44617691#1 -44617692#7 -44617692#6 -44617692#5 -44617692#4 -44617692#3 -44617692#2 -44617692#1 -44617692#0 30765305#0 30765305#1 30765305#2 30765305#3 30765305#4 30765305#5 30765305#6 30765305#7 30765305#8 30765305#9 30765305#10 30765305#11 30765305#12 30765305#13 30765305#14 30765305#15 30765305#16 30765305#17 812662182#0 812662182#1 812662182#2 812662182#3 812662182#4 812662182#5 812662182#6 778346821"/>
    </vehicle>
    <vehicle id="pass27" type="passenger" depart="27.00">
        <route edges="112571164#0 112571164#1 112571164#2 48846480 112571146#3 112571146#4 112571146#5 112571146#6 112571146#7 112571146#8 396464770#0 396464770#1 30967849#0 30967849#1 396464768#0 396464768#1 30967569#0 160892849#0 160892849#1 160892849#2 49236317#0 49236317#1 49236317#2 49236317#3 49236317#4 396067910#22 396067910#23 -112571163 -44617694#1 -44617694#0 -396067915#3 -396067915#2 -396067915#1 -396067915#0 -30967938#12 -30967938#11 -30967938#10 -30967938#9 -30967938#8 -30967938#7 -30967938#6 -30967938#5 -30967938#4 -30967938#3 -30967938#2 -30967938#1 -30967938#0 778885879#0 778885879#1 778885879#2 778885879#3 777139044 407836307#2 778885880 49381243#0 -49381243#0"/>
    </vehicle>
    <vehicle id="pass28" type="passenger" depart="28.00">
        <route edges="812654514 -812654514 -49236339#0 -49236338#0 -396195856#0 -396195860 -49236334 -49236331#1 -49236331#0 396067910#20 396067910#21 396067910#22 396067910#23 -112571163 -44617694#1 -44617694#0 -396067915#3 -396067915#2 -396067915#1 -396067915#0 -30967938#12 -30967938#11 -30967938#10 -30967938#9 -30967938#8 -30967938#7 -30967938#6 -30967938#5 -30967938#4 -30967938#3 -30967938#2 -30967938#1 -30967938#0 778885879#0 778885879#1 778885879#2 778885879#3 778885879#4 -112571165#3 -112571165#2 -112571165#1 -112571165#0 -112571145 -30771950#2 -30771950#1 -30771950#0 -95895495#2 95895495#2 165886060 438006981#0 438006981#1 438006981#2 397307498#0 397307498#1 397307498#2 397307498#3 397307498#4"/>
    </vehicle>
    <vehicle id="pass29" type="passenger" depart="29.00">
        <route edges="438006981#1 -438006981#1 -438006981#0 165886062 30771950#1 30771950#2 112571145 112571165#0 112571165#1 112571165#2 112571165#3 407836307#0 407836307#1 407836307#2 407836307#3 407836307#4 407836307#5 30967938#0 30967938#1 30967938#2 30967938#3 30967938#4 30967938#5 -30967936#13 -30967936#12 -30967936#11 49381263"/>
    </vehicle>
    <vehicle id="pass30" type="passenger" depart="30.00">
        <route edges="-49381243#4 -49381243#3 -49381243#2 -49381243#1 -49381243#0 778885878#0 778885877 407836307#5 30967938#0 30967938#1 30967938#2 30967938#3 30967938#4 30967938#5 30967938#6 30967938#7 30967938#8 30967938#9 30967938#10 30967938#11 30967938#12 396067915#0 396067915#1 396067915#2 396067915#3 44617695 354120398#1 354120398#2 354120398#3 354120398#4 354120398#5 354120398#6 44617691#0 44617691#1 -44617692#7 -44617692#6"/>
    </vehicle>
    <vehicle id="pass31" type="passenger" depart="31.00">
        <route edges="48846282#1 -165886068#5 -165886068#4 -165886068#3 -165886068#2 -165886068#1 -165886068#0 -30765281 -424668928#1 -424668928#0 -30989254 -397307498#6 48846316#0 48846316#1 48846316#2 48846316#3 48846316#4 396220343#2 396220343#3 396220343#4 396220343#5 396220343#6 396220343#7 396220343#8 396220342 126982581#0 126982581#1 886563423#0 886563423#1 886563423#2 886563423#3 474675239#0 474675239#1 474675239#2 474675239#3 -45744093#1 -45744093#0 474375215#0 474375215#1 474375215#2 474373320 474375214#1"/>
    </vehicle>
    <vehicle id="pass32" type="passenger" depart="32.00">
        <route edges="-30765281 -424668928#1 -424668928#0 -30989254 -397307498#6 -397307498#5 -397307498#4 -397307498#3 -397307498#2 -397307498#1 -397307498#0 -438006981#2 -438006981#1 -438006981#0 165886062 30771950#1 30771950#2 112571145 112571165#0 112571165#1 112571165#2 112571165#3 407836307#0 407836307#1 407836307#2 407836307#3 407836307#4 407836307#5 30967938#0 30967938#1 30967938#2 30967938#3 30967938#4 30967938#5 30967938#6 30967938#7 30967938#8 30967938#9 30967938#10 30967938#11 30967938#12 396067915#0 396067915#1 396067915#2 396067915#3 44617695 354120398#1 354120398#2 354120398#3 354120398#4 354120398#5 354120398#6 44617691#0 44617691#1 -44617692#7 -44617692#6 -44617692#5 -44617692#4 -44617692#3 -44617692#2 -44617692#1 -44617692#0 30765305#0 30765305#1 30765305#2 30765305#3 30765305#4 30765305#5 30765305#6 30765305#7 30765305#8 30765305#9 30765305#10 30765305#11 30765305#12 30765305#13 30765305#14 30765305#15 30765305#16 30765305#17 -686469802#12 -686469802#11 -686469802#10 -686469802#9 -686469802#8 -686469802#7 -686469802#6 -686469802#5 -686469802#4 -686469802#3 -686469802#2 48623153#0 48623153#1 -48623153#1"/>
    </vehicle>
    <vehicle id="pass33" type="passenger" depart="33.00">
        <route edges="44617691#1 -44617692#7 -44617692#6 -693511193#2 -693511193#1 -693511193#0 -162438556#1 -162438556#0 354120398#2 162031071#0 162031071#1 802064026#0 778906705 -812629547#1 -812629547#0 396067910#23 -112571163 -44617694#1 -44617694#0 -396067915#3 -396067915#2 -396067915#1 -396067915#0 -30967938#12 -30967938#11 -30967938#10 -30967938#9 -30967938#8 -30967938#7 -30967938#6 -30967938#5 -30967938#4 -30967938#3 -30967938#2 -30967938#1 -30967938#0 778885879#0 778885879#1 778885879#2 778885879#3 778885879#4 -112571165#3 -112571165#2 -112571165#1 -112571165#0 -112571145 -30771950#2 397307501#0 48846315#0 30967931#0 30967931#1 30967931#2"/>
    </vehicle>
    <vehicle id="pass34" type="passenger" depart="34.00">
        <route edges="-145298461#3 -145298461#2 -145298461#1 -145298461#0 -80339001#6 -80339001#5 -80339001#4 -80339001#3 -80339001#2 -80339001#1 -80339001#0 -354120404#1 -354120404#0 -83631585#2 -83631585#1 -83631585#0 -80334263 -398193759 398193760 30967916 30765305#5 30765305#6 30765305#7 30765305#8 30765305#9 30765305#10 30765305#11 30765305#12 30765305#13 30765305#14 162031059 558877178 812662184 136299032#0 136299032#1 136299032#2 136299032#3 136299032#4 136299032#5 136299032#6 48828888#0 48828888#1 48828888#2 48828888#3 569868740#0 569868740#1 569868740#2 569868740#3 474375214#0 474375214#1 474375214#2 45744093#0 -99624828#3 -99624828#2 -99624828#1 99624828#1"/>
    </vehicle>
    <vehicle id="pass35" type="passenger" depart="35.00">
        <route edges="48846294#0 48846294#1 30765325#2 30765325#3 30765325#4 30765325#5 30765325#6 30765325#7 30765325#8 354120399#0 354120399#1 31313292 112571146#0 112571146#1 112571146#2 112571146#3 112571146#4 112571146#5 112571146#6 112571146#7 112571146#8 396464770#0 396464770#1 396464769#0 396464769#1 354120398#0 354120398#1 354120398#2 354120398#3 354120398#4 354120398#5 354120398#6 44617691#0 44617691#1 -44617692#7 -44617692#6 -44617692#5 -44617692#4 -44617692#3 -44617692#2 -44617692#1 -44617692#0 30765305#0 30765305#1 30765305#2 162031069 558870795#3 558870795#4"/>
    </vehicle>
    <vehicle id="pass36" type="passenger" depart="36.00">
        <route edges="-396067910#16 396067910#16 396067910#17 396067910#18 396067910#19 396067910#20 396067910#21 396067910#22 396067910#23 -112571163 -44617694#1 -44617694#0 44617695 354120398#1 354120398#2 354120398#3 354120398#4 354120398#5 354120398#6 30765317#0 30765317#1 30765317#2"/>
    </vehicle>
    <vehicle id="pass38" type="passenger" depart="38.00">
        <route edges="-102616730#0 -812993277 -354120403#0 -48623153#1 -48623153#0 686469802#2 686469802#3 686469802#4 686469802#5 686469802#6 686469802#7 686469802#8 686469802#9 686469802#10 686469802#11 773191680 30967917#0 30967917#1 30967917#2 30967917#3 30967917#4 30967917#5 30967917#6 30967917#7 30967917#8 558870795#0 558870795#1 558870795#2 558870795#3 558870795#4 558870795#5 44617692#0 44617692#1 44617692#2 44617692#3 44617692#4 44617692#5 -693511193#2 -693511193#1 -693511193#0 -162438556#1 -162438556#0 354120398#2 354120398#3 354120398#4 354120398#5 354120398#6"/>
    </vehicle>
    <vehicle id="pass39" type="passenger" depart="39.00">
        <route edges="-30967938#1 30967938#1 30967938#2 30967938#3 30967938#4 30967938#5 30967938#6 30967938#7 30967938#8 30967938#9 30967938#10 30967938#11 30967938#12 396067915#0 396067915#1 396067915#2 396067915#3 44617694#0 44617694#1 112571163 -396067910#23 812629547#0 812629547#1 112571151#0 112571151#1 438007000 406255155 396464768#0 396464768#1 30967569#0 160892849#0 160892849#1 160892849#2 813962437#0 813962437#1 813962437#2 -813962437#2"/>
    </vehicle>
    <vehicle id="pass40" type="passenger" depart="40.00">
        <route edges="-136050617#0 136050614 136299032#6 48828888#0 48828888#1 48828888#2 48828888#3 569868740#0 569868740#1 569868740#2 569868740#3 474375214#0 474375214#1 474375214#2 45744093#0 45744093#1 807002511 396213760#0 396213760#1 396213760#2 396213760#3 396213760#4 396213760#5 396213760#6 886563422#0 886563422#1 886563422#2 886563422#3 886563422#4 31263337#0 31263337#1 396232538#2 396232538#3 31263361#0 31263361#1 396220343#0 396220343#1 396220343#2 136035858 136035855#0 136035855#1 -131398241 44706459#0 44706459#1 44706459#2 165886063 -654233239 -165886069#1 48846294#0 48846294#1 30765325#2 30765325#3 30765325#4 30765325#5 30765325#6 30765325#7 30765325#8 354120399#0 44441786 48846380#2"/>
    </vehicle>
    <vehicle id="pass41" type="passenger" depart="41.00">
        <route edges="390860503#0 -48846374 31312963#4 31312963#5 31312963#6 31312963#7 -31312839#4 -31312839#3 -31312839#2 -31312839#1 -31312839#0 778885882#0 778885882#1 30967848#0 30967848#1 30967848#2 396464770#0 396464770#1 396464769#0 396464769#1 354120398#0 354120398#1 354120398#2 354120398#3 354120398#4 354120398#5 354120398#6 44617691#0 44617691#1 -44617692#7 -44617692#6 -44617692#5 -44617692#4 -44617692#3 -44617692#2 -44617692#1 -44617692#0 30765305#0 30765305#1 30765305#2 30765305#3 30765305#4 30765305#5 30765305#6 49381217#0 49381217#1 558870795#0 49381219 398193759 80334263 83631585#0 83631585#1 83631585#2 354120404#0 354120404#1 -354120404#1"/>
    </vehicle>
    <vehicle id="pass42" type="passenger" depart="42.00">
        <route edges="162031059 558877178 812662184 136299032#0 136299032#1 136299032#2 136299032#3 136299032#4 136299032#5 136299032#6 44936327#0 463054744 44936330 396213762 45208068 399711231#0 399711231#1 399711231#2 399711231#3 -778580460"/>
    </vehicle>
    <vehicle id="pass43" type="passenger" depart="43.00">
        <route edges="-48846502#0 48846492#0 48846492#1 48846492#2 48846492#3 48846492#4 48846492#5 396464769#1 354120398#0 354120398#1 354120398#2 162031071#0 162031071#1 802064026#0 778906705 -812629547#1 -812629547#0 -396067910#22 -396067910#21 -396067910#20 -396067910#19 -396067910#18 -396067910#17 -396067910#16 112571148 -396195867 380499061 -380499061"/>
    </vehicle>
    <vehicle id="pass44" type="passenger" depart="44.00">