<?xml version="1.0" encoding="UTF-8"?>

<!-- generated on Wed Apr  7 08:14:36 2021 by Eclipse SUMO duarouter Version 1.1.0
<configuration xmlns:xsi="http://www.w3.org/2001/XMLSchema-instance" xsi:noNamespaceSchemaLocation="http://sumo.dlr.de/xsd/duarouterConfiguration.xsd">

    <input>
        <net-file value="map.net.xml"/>
        <route-files value="trailer_trips.xml"/>
    </input>

    <output>
        <output-file value="trailer_routes.rou.xml"/>
        <alternatives-output value="trailer_routes.rou.alt.xml"/>
    </output>

    <time>
        <begin value="0"/>
        <end value="300.0"/>
    </time>

    <report>
        <no-warnings value="true"/>
        <ignore-errors value="true"/>
        <no-step-log value="true"/>
    </report>

</configuration>
-->

<routes xmlns:xsi="http://www.w3.org/2001/XMLSchema-instance" xsi:noNamespaceSchemaLocation="http://sumo.dlr.de/xsd/routes_file.xsd">
    <vType id="trailer" vClass="trailer" color="223,179,180" accel="0.5"/>
    <vehicle id="trailer0" type="trailer" depart="0.00">
        <route edges="31263361#0 31263361#1 396220343#0 396220343#1 396220343#2 136035858 136035855#0 136035855#1 -131398241 44706459#0 44706459#1 44706459#2 44706459#3 44706459#4 778024065 474474477#0 474474477#1 133747106#0 133747106#1 -396229579#1 -396229579#0 396229579#0"/>
    </vehicle>
    <vehicle id="trailer1" type="trailer" depart="150.00">
        <route edges="-44617692#1 44617692#1 44617692#2 44617692#3 44617692#4 44617692#5 -693511193#2 -693511193#1 -693511193#0 -162438556#1 -162438556#0 354120398#2 162031071#0 162031071#1 802064026#0 778906705 -812629547#1 -812629547#0 396067910#23 -112571163 -44617694#1 -44617694#0 -396067915#3 -396067915#2 -396067915#1 -396067915#0 -30967938#12 -30967938#11 -30967938#10 -30967938#9 -30967938#8 -30967938#7 -30967938#6 -30967938#5 -30967938#4 -30967938#3 -30967938#2 -30967938#1 -30967938#0 778885879#0 778885879#1 778885879#2 778885879#3 778885879#4 -112571165#3 -112571165#2 -112571165#1 -112571165#0 -112571145 -30771950#2 -30771950#1 -30771950#0 -95895495#2 95895495#2 165886060 438006981#0 438006981#1 438006981#2 397307498#0 397307498#1 397307498#2 397307498#3 48846317 160892854#0 160892854#1"/>
    </vehicle>
</routes>
