<?xml version="1.0" encoding="UTF-8"?>

<!-- generated on Wed Apr  7 08:14:32 2021 by Eclipse SUMO duarouter Version 1.1.0
<configuration xmlns:xsi="http://www.w3.org/2001/XMLSchema-instance" xsi:noNamespaceSchemaLocation="http://sumo.dlr.de/xsd/duarouterConfiguration.xsd">

    <input>
        <net-file value="map.net.xml"/>
        <route-files value="truck_trips.xml"/>
    </input>

    <output>
        <output-file value="truck_routes.rou.xml"/>
        <alternatives-output value="truck_routes.rou.alt.xml"/>
    </output>

    <time>
        <begin value="0"/>
        <end value="300.0"/>
    </time>

    <report>
        <no-warnings value="true"/>
        <ignore-errors value="true"/>
        <no-step-log value="true"/>
    </report>

</configuration>
-->

<routes xmlns:xsi="http://www.w3.org/2001/XMLSchema-instance" xsi:noNamespaceSchemaLocation="http://sumo.dlr.de/xsd/routes_file.xsd">
    <vType id="truck" vClass="truck" color="179,223,183"/>
    <vehicle id="truck0" type="truck" depart="0.00">
        <route edges="44936327#1 44936327#2 44936327#3 170672565 31263400#8 31263400#9 162031067#0 48828888#2 48828888#3 569868740#0 569868740#1 569868740#2 569868740#3 474375214#0 474375214#1 474375214#2 474375215#0 474375215#1 49051170#0 49051170#1 48826202 49051169#0 49051169#1"/>
    </vehicle>
    <vehicle id="truck1" type="truck" depart="15.00">
        <route edges="-396195856#0 -396195860 -49236334 -49236331#1 -49236331#0 396067910#20 396067910#21 396067910#22 396067910#23 -112571163 -44617694#1 -44617694#0 -396067915#3 -396067915#2 -396067915#1 -396067915#0 -30967938#12 -30967938#11 -30967938#10 -30967938#9 -30967938#8 -30967938#7 -30967938#6 -30967938#5 -30967938#4 -30967938#3 -30967938#2 -30967938#1 -30967938#0 778885879#0 778885879#1 778885879#2 778885879#3 778885879#4 -112571165#3 -112571165#2 -112571165#1 -112571165#0 112571165#0"/>
    </vehicle>
    <vehicle id="truck2" type="truck" depart="30.00">
        <route edges="49236345#0 -49236345#0 -396195856#1 -396195856#0 -396195860 -49236334 -49236331#1 -49236331#0 396067910#20 396067910#21 812654512 812629547#1 112571151#0 112571151#1 438007000 406255155 396464768#0 396464768#1 30765299 354129651#0 354129651#1 112571156#0 812629546 31312839#0 31312839#1 31312839#2 31312839#3 31312839#4 -31312963#7 -31312963#6 -31312963#5 31312963#5"/>
    </vehicle>
    <vehicle id="truck3" type="truck" depart="45.00">
        <route edges="30765317#2 30765317#3 30765317#4 30765317#5 30765317#6 30765317#7 30765317#8 354120397#0 354120397#1 44660063 396060105#5 396060105#6 396060105#7 396060105#8 396060105#9 396060105#10 396060105#11 396060105#12 396060105#13 396060105#14 396060105#15 396060105#16 396060105#17 396060105#18 396060105#19 396060105#20 802167823#0 802167823#1 44617701#0 44617701#1 354120398#5 354120398#6 44617691#0 44617691#1 -44617692#7 -44617692#6 -44617692#5 -44617692#4 -44617692#3 -44617692#2 -44617692#1 -44617692#0 30765305#0 30765305#1 30765305#2 30765305#3 30765305#4 30765305#5"/>
    </vehicle>
    <vehicle id="truck4" type="truck" depart="60.00">
        <route edges="812680081 -812680081 30967936#0 30967936#1 30967936#2 30967936#3 30967936#4 30967936#5 30967936#6 30967936#7 30967936#8 30967936#9 30967936#10 30967936#11 30967936#12 30967936#13 30967938#6 30967938#7 30967938#8 30967938#9 30967938#10 -30967938#10"/>
    </vehicle>
    <vehicle id="truck5" type="truck" depart="75.00">
        <route edges="49381243#5 49381243#6 49381243#7 49381243#8 -49381230#5 463054743#0 -463054743#0"/>
    </vehicle>
    <vehicle id="truck6" type="truck" depart="90.00">
        <route edges="44936328#1 -44936328#1 -44936328#0 48826786#0 48826786#1 48826786#2 711652467#2 -48826775 474375214#2 45744093#0 45744093#1 807002511 396213760#0 396213760#1 396213760#2 396213760#3 396213760#4 396213760#5 396213760#6 886563422#0 886563422#1 886563422#2 886563422#3 886563422#4 391000055#0 391000055#1 391000055#2 391000055#3 391000055#4 391000055#5 391000055#6 391000055#7 391000055#8 44936304#0 44936304#1 44936304#2 112571165#2 112571165#3 407836307#0 407836307#1 407836307#2 407836307#3 407836307#4 407836307#5 30967938#0 30967938#1 30967938#2 30967938#3 30967938#4 30967938#5 30967938#6 30967938#7 30967938#8 30967938#9 30967938#10 30967938#11 30967938#12 396067915#0 396067915#1 396067915#2 396067915#3 44617694#0 44617694#1 112571163 -396067910#23 -396067910#22 -396067910#21 -396067910#20 49236331#0 49236331#1 49236334 -49236334"/>
    </vehicle>
    <vehicle id="truck7" type="truck" depart="105.00">
        <route edges="44437826 -569868740#12 399684422 886563423#0 886563423#1 886563423#2 886563423#3 886563423#4 886563423#5 886563422#0 886563422#1 886563422#2 886563422#3 886563422#4 391000055#0 391000055#1 391000055#2 391000055#3 391000055#4 391000055#5 391000055#6 391000055#7 391000055#8 44936304#0 44936304#1 44936304#2 -112571165#1 44936305#0"/>
    </vehicle>
    <vehicle id="truck8" type="truck" depart="120.00">
        <route edges="802167823#0 802167823#1 44617701#0 44617701#1 354120398#5 354120398#6 44617691#0 44617691#1 -44617692#7 -44617692#6 -44617692#5 -44617692#4 -44617692#3 -44617692#2 -44617692#1 -44617692#0 30765305#0 30765305#1 30765305#2 30765305#3 30765305#4 30765305#5 30765305#6 30765305#7 30765305#8 30765305#9 30765305#10 30765305#11 30765305#12 30765305#13 30765305#14 162031059 558877178 812662184 136299032#0 136299032#1 136299032#2 136299032#3 136299032#4 136299032#5 136299032#6 48828888#0 48828888#1 48828888#2 48828888#3 569868740#0 569868740#1 569868740#2 569868740#3 474375214#0 474375214#1 474375214#2"/>
    </vehicle>
    <vehicle id="truck9" type="truck" depart="135.00">
        <route edges="-48846531 -48846521#2 -48846521#1 -48846521#0 -112571165#3 -112571165#2 -112571165#1 -112571165#0 -112571145 -30771950#2 -30771950#1 -30771950#0 -95895495#2 95895495#2 165886060 438006981#0 438006981#1 438006981#2 397307498#0 397307498#1 397307498#2 397307498#3 397307498#4 397307498#5 397307498#6 30989254 424668928#0 424668928#1 30765281 165886068#0 165886066 778020707#0 778020707#1 777963554#0 165886067 44706459#2 165886063 -654233239 -165886069#1 -165886069#0 165886069#0"/>
    </vehicle>
    <vehicle id="truck10" type="truck" depart="150.00">
        <route edges="30964625#7 30964625#8 30964625#9 30964625#10 76750152 -778820630#1 -76743738 -112571168 -76750151 396229580#1 777958274 396229579#0 396229579#1 133747106#2 48846302#0 48846302#1 48846316#0 48846316#1 48846316#2 48846316#3 48846316#4 396220343#2 396220343#3 396220343#4 396220343#5 396220343#6 396220343#7 396220343#8 396220342 126982581#0 126982581#1 886563423#0 886563423#1 886563423#2 886563423#3 474675239#0 474675239#1 474675239#2 474675239#3 -45744093#1 -45744093#0 474375215#0 474375215#1 49051170#0 49051170#1 48826202 49051169#0 49051169#1 807012495 48826203 48826204 778924312"/>
    </vehicle>
    <vehicle id="truck11" type="truck" depart="165.00">
        <route edges="48846508#4 48846511#1 48846492#4 48846492#5 396464769#1 354120398#0 354120398#1 354120398#2 354120398#3 354120398#4 354120398#5 354120398#6 30765317#0 30765317#1 30765317#2 30765317#3 30765317#4 30765317#5 30765317#6 30765317#7 30765317#8 354120397#0"/>
    </vehicle>
    <vehicle id="truck12" type="truck" depart="180.00">
        <route edges="391000055#5 391000055#6 391000055#7 391000055#8 44936304#0 44936304#1 44936304#2 112571165#2 112571165#3 407836307#0 407836307#1 407836307#2 407836307#3 407836307#4 407836307#5 30967938#0 30967938#1 30967938#2 30967938#3 30967938#4 30967938#5 30967938#6 30967938#7 30967938#8 30967938#9 30967938#10 30967938#11 30967938#12 396067915#0 396067915#1 396067915#2 396067915#3 44617694#0 44617694#1 112571163 -396067910#23 812629547#0 812629547#1 -812629547#1"/>
    </vehicle>
    <vehicle id="truck14" type="truck" depart="210.00">
        <route edges="569868740#1 569868740#2 569868740#3 474375214#0 474375214#1 474375214#2 45744093#0 45744093#1 807002511 396213760#0 396213760#1 396213760#2 396213760#3 396213760#4 396213760#5 396213760#6 886563422#0 886563422#1 886563422#2 886563422#3 886563422#4 391000055#0 391000055#1 391000055#2 391000055#3 391000055#4 391000055#5 391000055#6"/>
    </vehicle>
    <vehicle id="truck15" type="truck" depart="225.00">
        <route edges="-49381213 229235984#1 126981823 558882754#0 558882754#1 812662184 136299032#0 136299032#1 136299032#2 136299032#3 136299032#4 136299032#5 136299032#6 44936327#0 463054744 44936330 396213762 45208068 399711231#0 399711231#1 399711231#2 399711231#3 396213764#0 396213764#1 396213764#2 396213764#3 391000055#4 391000055#5 391000055#6 391000055#7 391000055#8 44936304#0 44936304#1 44936304#2 112571165#2 112571165#3 407836307#0 407836307#1 407836307#2 778885880 49381243#0 49381243#1 49381243#2 49381243#3 49381243#4 49381243#5 49381243#6 49381243#7 49381243#8 -49381230#5 -49381230#4"/>
    </vehicle>
    <vehicle id="truck16" type="truck" depart="240.00">
        <route edges="-48828793 552181317 -48828795#1 -144946625 45051007#3 778580460 396213764#0 396213764#1 396213764#2 396213764#3 391000055#4 391000055#5 391000055#6 391000055#7 391000055#8 44936304#0 44936304#1 44936304#2 -112571165#1 -112571165#0 -112571145 -30771950#2 -30771950#1 -30771950#0 -95895495#2 95895495#2 165886060 438006981#0 438006981#1 438006981#2 397307498#0 397307498#1 397307498#2 397307498#3 48846317"/>
    </vehicle>
    <vehicle id="truck17" type="truck" depart="255.00">
        <route edges="-49239928#2 49239928#2 49239928#3 49239928#4 49239928#5 49239928#6 49239928#7"/>
    </vehicle>
    <vehicle id="truck18" type="truck" depart="270.00">
        <route edges="396060105#9 396060105#10 396060105#11 396060105#12 396060105#13 396060105#14 396060105#15 396060105#16 396060105#17 396060105#18 396060105#19 396060105#20 802167823#0 802167823#1 44617701#0 44617701#1 354120398#5 354120398#6 44617691#0 44617691#1 -44617692#7 -44617692#6 -44617692#5 -44617692#4 -44617692#3 -44617692#2 -44617692#1 -44617692#0 30765305#0 30765305#1 30765305#2 30765305#3 30765305#4 30765305#5 30765305#6 30765305#7 30765305#8 30765305#9 30765305#10 30765305#11 30765305#12 30765305#13 30765305#14 162031059 558877178 812662184 136299032#0 136299032#1 136299032#2 136299032#3 136299032#4 136299032#5 136299032#6 44936327#0 44936327#1 44936327#2 45208070"/>
    </vehicle>
    <vehicle id="truck19" type="truck" depart="285.00">
        <route edges="396232538#7 396220342 415835654 44437826 -569868740#12 399684422"/>
    </vehicle>
</routes>
