<?xml version="1.0" encoding="UTF-8"?>
<!-- generated on 2021-04-07 08:14:32.350238 by $Id$
  options: -n map.net.xml -r truck_routes.rou.xml -o truck_trips.xml -e 300 -p 15 <doubleminus>vehicle-class truck <doubleminus>trip-attributes=color="179,223,183"
-->
<routes xmlns:xsi="http://www.w3.org/2001/XMLSchema-instance" xsi:noNamespaceSchemaLocation="http://sumo.dlr.de/xsd/routes_file.xsd">
    <vType id="truck" vClass="truck" color="179,223,183"/>
    <trip id="0" depart="0.00" from="44936327#1" to="49051169#1" type="truck"/>
    <trip id="1" depart="15.00" from="-396195856#0" to="112571165#0" type="truck"/>
    <trip id="2" depart="30.00" from="49236345#0" to="31312963#5" type="truck"/>
    <trip id="3" depart="45.00" from="30765317#2" to="30765305#5" type="truck"/>
    <trip id="4" depart="60.00" from="812680081" to="-30967938#10" type="truck"/>
    <trip id="5" depart="75.00" from="49381243#5" to="-463054743#0" type="truck"/>
    <trip id="6" depart="90.00" from="44936328#1" to="-49236334" type="truck"/>
    <trip id="7" depart="105.00" from="44437826" to="44936305#0" type="truck"/>
    <trip id="8" depart="120.00" from="802167823#0" to="474375214#2" type="truck"/>
    <trip id="9" depart="135.00" from="-48846531" to="165886069#0" type="truck"/>
    <trip id="10" depart="150.00" from="30964625#7" to="778924312" type="truck"/>
    <trip id="11" depart="165.00" from="48846508#4" to="354120397#0" type="truck"/>
    <trip id="12" depart="180.00" from="391000055#5" to="-812629547#1" type="truck"/>
    <trip id="13" depart="195.00" from="162031070" to="396060105#1" type="truck"/>
    <trip id="14" depart="210.00" from="569868740#1" to="391000055#6" type="truck"/>
    <trip id="15" depart="225.00" from="-49381213" to="-49381230#4" type="truck"/>
    <trip id="16" depart="240.00" from="-48828793" to="48846317" type="truck"/>
    <trip id="17" depart="255.00" from="-49239928#2" to="49239928#7" type="truck"/>
    <trip id="18" depart="270.00" from="396060105#9" to="45208070" type="truck"/>
    <trip id="19" depart="285.00" from="396232538#7" to="399684422" type="truck"/>
</routes>
