<?xml version="1.0" encoding="UTF-8"?>

<!-- generated on Mon Aug 22 22:23:56 2022 by Eclipse SUMO netgenerate Version 1.1.0
<configuration xmlns:xsi="http://www.w3.org/2001/XMLSchema-instance" xsi:noNamespaceSchemaLocation="http://sumo.dlr.de/xsd/netgenerateConfiguration.xsd">

    <spider_network>
        <spider value="true"/>
        <spider.arm-number value="6"/>
        <spider.circle-number value="2"/>
        <spider.space-radius value="75"/>
    </spider_network>

    <output>
        <output-file value="map.net.xml"/>
    </output>

    <building_defaults>
        <default.lanenumber value="1"/>
        <default-junction-type value="traffic_light"/>
    </building_defaults>

</configuration>
-->

<net version="1.1" junctionCornerDetail="5" limitTurnSpeed="5.50" xmlns:xsi="http://www.w3.org/2001/XMLSchema-instance" xsi:noNamespaceSchemaLocation="http://sumo.dlr.de/xsd/net_file.xsd">

    <location netOffset="150.00,129.90" convBoundary="0.00,0.00,300.00,259.81" origBoundary="-150.00,-129.90,150.00,129.90" projParameter="!"/>

    <edge id=":A1_0" function="internal">
        <lane id=":A1_0_0" index="0" speed="5.67" length="9.24" shape="153.39,138.97 151.69,136.77 150.00,136.04 148.31,136.77 146.61,138.97"/>
    </edge>
    <edge id=":A1_1" function="internal">
        <lane id=":A1_1_0" index="0" speed="10.69" length="15.68" shape="153.39,138.97 150.96,135.70 148.00,133.37 144.50,131.97 140.46,131.50"/>
    </edge>
    <edge id=":A1_2" function="internal">
        <lane id=":A1_2_0" index="0" speed="13.89" length="19.09" shape="153.39,138.97 143.84,122.44"/>
    </edge>
    <edge id=":A1_3" function="internal">
        <lane id=":A1_3_0" index="0" speed="11.73" length="19.04" shape="153.39,138.97 151.42,134.44 150.77,129.90 151.42,125.37 153.39,120.84"/>
    </edge>
    <edge id=":A1_4" function="internal">
        <lane id=":A1_4_0" index="0" speed="7.40" length="16.80" shape="153.39,138.97 151.46,134.30 151.85,130.97 154.54,128.97 159.54,128.30"/>
    </edge>
    <edge id=":A1_5" function="internal">
        <lane id=":A1_5_0" index="0" speed="3.65" length="4.67" shape="153.39,138.97 153.48,137.53 153.97,136.78 154.86,136.73 156.16,137.37"/>
    </edge>
    <edge id=":A1_6" function="internal">
        <lane id=":A1_6_0" index="0" speed="5.67" length="9.24" shape="159.54,131.50 156.79,131.87 155.31,132.97 155.10,134.80 156.16,137.37"/>
    </edge>
    <edge id=":A1_7" function="internal">
        <lane id=":A1_7_0" index="0" speed="10.69" length="15.68" shape="159.54,131.50 155.50,131.97 152.00,133.37 149.04,135.70 146.61,138.97"/>
    </edge>
    <edge id=":A1_8" function="internal">
        <lane id=":A1_8_0" index="0" speed="13.89" length="19.09" shape="159.54,131.50 140.46,131.50"/>
    </edge>
    <edge id=":A1_9" function="internal">
        <lane id=":A1_9_0" index="0" speed="11.73" length="9.24" shape="159.54,131.50 154.64,130.94 150.64,129.34"/>
    </edge>
    <edge id=":A1_10" function="internal">
        <lane id=":A1_10_0" index="0" speed="7.40" length="16.80" shape="159.54,131.50 154.54,130.84 151.85,128.84 151.46,125.51 153.39,120.84"/>
    </edge>
    <edge id=":A1_11" function="internal">
        <lane id=":A1_11_0" index="0" speed="3.65" length="4.67" shape="159.54,131.50 158.34,130.70 157.94,129.90 158.34,129.10 159.54,128.30"/>
    </edge>
    <edge id=":A1_36" function="internal">
        <lane id=":A1_36_0" index="0" speed="11.73" length="9.79" shape="150.64,129.34 150.38,129.24 146.79,126.41 143.84,122.44"/>
    </edge>
    <edge id=":A1_12" function="internal">
        <lane id=":A1_12_0" index="0" speed="5.67" length="9.24" shape="156.16,122.44 155.10,125.01 155.31,126.84 156.79,127.94 159.54,128.30"/>
    </edge>
    <edge id=":A1_13" function="internal">
        <lane id=":A1_13_0" index="0" speed="10.69" length="15.68" shape="156.16,122.44 154.54,126.17 154.00,129.90 154.54,133.64 156.16,137.37"/>
    </edge>
    <edge id=":A1_14" function="internal">
        <lane id=":A1_14_0" index="0" speed="13.89" length="19.09" shape="156.16,122.44 146.61,138.97"/>
    </edge>
    <edge id=":A1_15" function="internal">
        <lane id=":A1_15_0" index="0" speed="11.73" length="19.04" shape="156.16,122.44 153.21,126.41 149.62,129.24 145.36,130.94 140.46,131.50"/>
    </edge>
    <edge id=":A1_16" function="internal">
        <lane id=":A1_16_0" index="0" speed="7.40" length="16.80" shape="156.16,122.44 153.08,126.44 150.00,127.77 146.92,126.44 143.84,122.44"/>
    </edge>
    <edge id=":A1_17" function="internal">
        <lane id=":A1_17_0" index="0" speed="3.65" length="4.67" shape="156.16,122.44 154.86,123.08 153.97,123.03 153.48,122.28 153.39,120.84"/>
    </edge>
    <edge id=":A1_18" function="internal">
        <lane id=":A1_18_0" index="0" speed="5.67" length="9.24" shape="146.61,120.84 148.31,123.04 150.00,123.77 151.69,123.04 153.39,120.84"/>
    </edge>
    <edge id=":A1_19" function="internal">
        <lane id=":A1_19_0" index="0" speed="10.69" length="15.68" shape="146.61,120.84 149.04,124.11 152.00,126.44 155.50,127.84 159.54,128.30"/>
    </edge>
    <edge id=":A1_20" function="internal">
        <lane id=":A1_20_0" index="0" speed="13.89" length="19.09" shape="146.61,120.84 156.16,137.37"/>
    </edge>
    <edge id=":A1_21" function="internal">
        <lane id=":A1_21_0" index="0" speed="11.73" length="19.04" shape="146.61,120.84 148.58,125.37 149.23,129.90 148.58,134.44 146.61,138.97"/>
    </edge>
    <edge id=":A1_22" function="internal">
        <lane id=":A1_22_0" index="0" speed="7.40" length="16.80" shape="146.61,120.84 148.54,125.51 148.15,128.84 145.46,130.84 140.46,131.50"/>
    </edge>
    <edge id=":A1_23" function="internal">
        <lane id=":A1_23_0" index="0" speed="3.65" length="4.67" shape="146.61,120.84 146.52,122.28 146.03,123.03 145.14,123.08 143.84,122.44"/>
    </edge>
    <edge id=":A1_24" function="internal">
        <lane id=":A1_24_0" index="0" speed="5.67" length="9.24" shape="140.46,128.30 143.21,127.94 144.69,126.84 144.90,125.01 143.84,122.44"/>
    </edge>
    <edge id=":A1_25" function="internal">
        <lane id=":A1_25_0" index="0" speed="10.69" length="15.68" shape="140.46,128.30 144.50,127.84 148.00,126.44 150.96,124.11 153.39,120.84"/>
    </edge>
    <edge id=":A1_26" function="internal">
        <lane id=":A1_26_0" index="0" speed="13.89" length="19.09" shape="140.46,128.30 159.54,128.30"/>
    </edge>
    <edge id=":A1_27" function="internal">
        <lane id=":A1_27_0" index="0" speed="11.73" length="9.24" shape="140.46,128.30 145.36,128.87 149.36,130.47"/>
    </edge>
    <edge id=":A1_28" function="internal">
        <lane id=":A1_28_0" index="0" speed="7.40" length="16.80" shape="140.46,128.30 145.46,128.97 148.15,130.97 148.54,134.30 146.61,138.97"/>
    </edge>
    <edge id=":A1_29" function="internal">
        <lane id=":A1_29_0" index="0" speed="3.65" length="4.67" shape="140.46,128.30 141.66,129.10 142.06,129.90 141.66,130.70 140.46,131.50"/>
    </edge>
    <edge id=":A1_37" function="internal">
        <lane id=":A1_37_0" index="0" speed="11.73" length="9.79" shape="149.36,130.47 149.62,130.57 153.21,133.40 156.16,137.37"/>
    </edge>
    <edge id=":A1_30" function="internal">
        <lane id=":A1_30_0" index="0" speed="5.67" length="9.24" shape="143.84,137.37 144.90,134.80 144.69,132.97 143.21,131.87 140.46,131.50"/>
    </edge>
    <edge id=":A1_31" function="internal">
        <lane id=":A1_31_0" index="0" speed="10.69" length="15.68" shape="143.84,137.37 145.46,133.64 146.00,129.90 145.46,126.17 143.84,122.44"/>
    </edge>
    <edge id=":A1_32" function="internal">
        <lane id=":A1_32_0" index="0" speed="13.89" length="19.09" shape="143.84,137.37 153.39,120.84"/>
    </edge>
    <edge id=":A1_33" function="internal">
        <lane id=":A1_33_0" index="0" speed="11.73" length="19.04" shape="143.84,137.37 146.79,133.40 150.38,130.57 154.64,128.87 159.54,128.30"/>
    </edge>
    <edge id=":A1_34" function="internal">
        <lane id=":A1_34_0" index="0" speed="7.40" length="16.80" shape="143.84,137.37 146.92,133.37 150.00,132.04 153.08,133.37 156.16,137.37"/>
    </edge>
    <edge id=":A1_35" function="internal">
        <lane id=":A1_35_0" index="0" speed="3.65" length="4.67" shape="143.84,137.37 145.14,136.73 146.03,136.78 146.52,137.53 146.61,138.97"/>
    </edge>
    <edge id=":B1_0" function="internal">
        <lane id=":B1_0_0" index="0" speed="9.55" length="12.39" shape="230.85,131.50 228.42,131.97 226.08,133.37 223.81,135.70 221.61,138.97"/>
    </edge>
    <edge id=":B1_1" function="internal">
        <lane id=":B1_1_0" index="0" speed="13.89" length="15.39" shape="230.85,131.50 215.46,131.50"/>
    </edge>
    <edge id=":B1_2" function="internal">
        <lane id=":B1_2_0" index="0" speed="10.70" length="5.49" shape="230.85,131.50 227.56,130.94 225.67,129.90"/>
    </edge>
    <edge id=":B1_3" function="internal">
        <lane id=":B1_3_0" index="0" speed="3.65" length="2.34" shape="230.85,131.50 229.65,130.70 229.25,129.90"/>
    </edge>
    <edge id=":B1_16" function="internal">
        <lane id=":B1_16_0" index="0" speed="10.70" length="10.25" shape="225.67,129.90 224.46,129.24 221.56,126.41 218.84,122.44"/>
    </edge>
    <edge id=":B1_17" function="internal">
        <lane id=":B1_17_0" index="0" speed="3.65" length="2.34" shape="229.25,129.90 229.65,129.10 230.85,128.30"/>
    </edge>
    <edge id=":B1_4" function="internal">
        <lane id=":B1_4_0" index="0" speed="9.55" length="12.39" shape="221.61,120.84 223.81,124.11 226.08,126.44 228.42,127.84 230.85,128.30"/>
    </edge>
    <edge id=":B1_5" function="internal">
        <lane id=":B1_5_0" index="0" speed="11.73" length="19.04" shape="221.61,120.84 223.58,125.37 224.23,129.90 223.58,134.44 221.61,138.97"/>
    </edge>
    <edge id=":B1_6" function="internal">
        <lane id=":B1_6_0" index="0" speed="7.40" length="9.18" shape="221.61,120.84 223.54,125.51 223.15,128.84 222.53,129.30"/>
    </edge>
    <edge id=":B1_7" function="internal">
        <lane id=":B1_7_0" index="0" speed="3.65" length="2.52" shape="221.61,120.84 221.52,122.28 221.03,123.03 220.85,123.04"/>
    </edge>
    <edge id=":B1_18" function="internal">
        <lane id=":B1_18_0" index="0" speed="7.40" length="7.62" shape="222.53,129.30 220.46,130.84 215.46,131.50"/>
    </edge>
    <edge id=":B1_19" function="internal">
        <lane id=":B1_19_0" index="0" speed="3.65" length="2.15" shape="220.85,123.04 220.14,123.08 218.84,122.44"/>
    </edge>
    <edge id=":B1_8" function="internal">
        <lane id=":B1_8_0" index="0" speed="5.67" length="9.24" shape="215.46,128.30 218.21,127.94 219.69,126.84 219.90,125.01 218.84,122.44"/>
    </edge>
    <edge id=":B1_9" function="internal">
        <lane id=":B1_9_0" index="0" speed="13.89" length="15.39" shape="215.46,128.30 230.85,128.30"/>
    </edge>
    <edge id=":B1_10" function="internal">
        <lane id=":B1_10_0" index="0" speed="7.40" length="6.61" shape="215.46,128.30 220.46,128.97 221.72,129.90"/>
    </edge>
    <edge id=":B1_11" function="internal">
        <lane id=":B1_11_0" index="0" speed="3.65" length="2.34" shape="215.46,128.30 216.66,129.10 217.06,129.90"/>
    </edge>
    <edge id=":B1_20" function="internal">
        <lane id=":B1_20_0" index="0" speed="7.40" length="10.19" shape="221.72,129.90 223.15,130.97 223.54,134.30 221.61,138.97"/>
    </edge>
    <edge id=":B1_21" function="internal">
        <lane id=":B1_21_0" index="0" speed="3.65" length="2.34" shape="217.06,129.90 216.66,130.70 215.46,131.50"/>
    </edge>
    <edge id=":B1_12" function="internal">
        <lane id=":B1_12_0" index="0" speed="5.67" length="9.24" shape="218.84,137.37 219.90,134.80 219.69,132.97 218.21,131.87 215.46,131.50"/>
    </edge>
    <edge id=":B1_13" function="internal">
        <lane id=":B1_13_0" index="0" speed="10.69" length="15.68" shape="218.84,137.37 220.46,133.64 221.00,129.90 220.46,126.17 218.84,122.44"/>
    </edge>
    <edge id=":B1_14" function="internal">
        <lane id=":B1_14_0" index="0" speed="10.70" length="5.70" shape="218.84,137.37 221.56,133.40 222.20,132.77"/>
    </edge>
    <edge id=":B1_15" function="internal">
        <lane id=":B1_15_0" index="0" speed="3.65" length="2.13" shape="218.84,137.37 220.14,136.73 220.82,136.77"/>
    </edge>
    <edge id=":B1_22" function="internal">
        <lane id=":B1_22_0" index="0" speed="10.70" length="10.03" shape="222.20,132.77 224.46,130.57 227.56,128.87 230.85,128.30"/>
    </edge>
    <edge id=":B1_23" function="internal">
        <lane id=":B1_23_0" index="0" speed="3.65" length="2.54" shape="220.82,136.77 221.03,136.78 221.52,137.53 221.61,138.97"/>
    </edge>
    <edge id=":B2_0" function="internal">
        <lane id=":B2_0_0" index="0" speed="9.55" length="12.39" shape="189.04,200.72 187.42,198.85 185.04,197.52 181.88,196.72 177.96,196.46"/>
    </edge>
    <edge id=":B2_1" function="internal">
        <lane id=":B2_1_0" index="0" speed="13.89" length="15.39" shape="189.04,200.72 181.34,187.39"/>
    </edge>
    <edge id=":B2_2" function="internal">
        <lane id=":B2_2_0" index="0" speed="10.70" length="5.49" shape="189.04,200.72 187.88,197.59 187.84,195.44"/>
    </edge>
    <edge id=":B2_3" function="internal">
        <lane id=":B2_3_0" index="0" speed="3.65" length="2.34" shape="189.04,200.72 189.13,199.28 189.62,198.53"/>
    </edge>
    <edge id=":B2_16" function="internal">
        <lane id=":B2_16_0" index="0" speed="10.70" length="10.25" shape="187.84,195.44 187.81,194.06 188.81,190.12 190.89,185.79"/>
    </edge>
    <edge id=":B2_17" function="internal">
        <lane id=":B2_17_0" index="0" speed="3.65" length="2.34" shape="189.62,198.53 190.52,198.48 191.81,199.12"/>
    </edge>
    <edge id=":B2_4" function="internal">
        <lane id=":B2_4_0" index="0" speed="9.55" length="12.39" shape="193.66,187.39 191.93,190.92 191.04,194.06 191.00,196.79 191.81,199.12"/>
    </edge>
    <edge id=":B2_5" function="internal">
        <lane id=":B2_5_0" index="0" speed="11.73" length="19.04" shape="193.66,187.39 190.71,191.36 187.12,194.19 182.86,195.89 177.96,196.46"/>
    </edge>
    <edge id=":B2_6" function="internal">
        <lane id=":B2_6_0" index="0" speed="7.40" length="9.18" shape="193.66,187.39 190.58,191.39 187.50,192.72 186.78,192.41"/>
    </edge>
    <edge id=":B2_7" function="internal">
        <lane id=":B2_7_0" index="0" speed="3.65" length="2.52" shape="193.66,187.39 192.36,188.03 191.47,187.98 191.37,187.82"/>
    </edge>
    <edge id=":B2_18" function="internal">
        <lane id=":B2_18_0" index="0" speed="7.40" length="7.62" shape="186.78,192.41 184.42,191.39 181.34,187.39"/>
    </edge>
    <edge id=":B2_19" function="internal">
        <lane id=":B2_19_0" index="0" speed="3.65" length="2.15" shape="191.37,187.82 190.98,187.23 190.89,185.79"/>
    </edge>
    <edge id=":B2_8" function="internal">
        <lane id=":B2_8_0" index="0" speed="5.67" length="9.24" shape="184.11,185.79 185.81,187.99 187.50,188.72 189.19,187.99 190.89,185.79"/>
    </edge>
    <edge id=":B2_9" function="internal">
        <lane id=":B2_9_0" index="0" speed="13.89" length="15.39" shape="184.11,185.79 191.81,199.12"/>
    </edge>
    <edge id=":B2_10" function="internal">
        <lane id=":B2_10_0" index="0" speed="7.40" length="6.61" shape="184.11,185.79 186.04,190.46 185.86,192.01"/>
    </edge>
    <edge id=":B2_11" function="internal">
        <lane id=":B2_11_0" index="0" speed="3.65" length="2.34" shape="184.11,185.79 184.02,187.23 183.53,187.98"/>
    </edge>
    <edge id=":B2_20" function="internal">
        <lane id=":B2_20_0" index="0" speed="7.40" length="10.19" shape="185.86,192.01 185.65,193.79 182.96,195.79 177.96,196.46"/>
    </edge>
    <edge id=":B2_21" function="internal">
        <lane id=":B2_21_0" index="0" speed="3.65" length="2.34" shape="183.53,187.98 182.64,188.03 181.34,187.39"/>
    </edge>
    <edge id=":B2_12" function="internal">
        <lane id=":B2_12_0" index="0" speed="5.67" length="9.24" shape="177.96,193.26 180.71,192.89 182.19,191.79 182.40,189.96 181.34,187.39"/>
    </edge>
    <edge id=":B2_13" function="internal">
        <lane id=":B2_13_0" index="0" speed="10.69" length="15.68" shape="177.96,193.26 182.00,192.79 185.50,191.39 188.46,189.06 190.89,185.79"/>
    </edge>
    <edge id=":B2_14" function="internal">
        <lane id=":B2_14_0" index="0" speed="10.70" length="5.70" shape="177.96,193.26 182.75,193.62 183.61,193.87"/>
    </edge>
    <edge id=":B2_15" function="internal">
        <lane id=":B2_15_0" index="0" speed="3.65" length="2.13" shape="177.96,193.26 179.16,194.06 179.47,194.67"/>
    </edge>
    <edge id=":B2_22" function="internal">
        <lane id=":B2_22_0" index="0" speed="10.70" length="10.03" shape="183.61,193.87 186.65,194.72 189.67,196.55 191.81,199.12"/>
    </edge>
    <edge id=":B2_23" function="internal">
        <lane id=":B2_23_0" index="0" speed="3.65" length="2.54" shape="179.47,194.67 179.56,194.86 179.16,195.66 177.96,196.46"/>
    </edge>
    <edge id=":B3_0" function="internal">
        <lane id=":B3_0_0" index="0" speed="9.55" length="12.39" shape="122.04,196.46 118.12,196.72 114.96,197.52 112.58,198.85 110.96,200.72"/>
    </edge>
    <edge id=":B3_1" function="internal">
        <lane id=":B3_1_0" index="0" speed="11.73" length="19.04" shape="122.04,196.46 117.14,195.89 112.88,194.19 109.29,191.36 106.34,187.39"/>
    </edge>
    <edge id=":B3_2" function="internal">
        <lane id=":B3_2_0" index="0" speed="7.40" length="9.18" shape="122.04,196.46 117.04,195.79 114.35,193.79 114.26,193.02"/>
    </edge>
    <edge id=":B3_3" function="internal">
        <lane id=":B3_3_0" index="0" speed="3.65" length="2.52" shape="122.04,196.46 120.84,195.66 120.44,194.86 120.52,194.69"/>
    </edge>
    <edge id=":B3_16" function="internal">
        <lane id=":B3_16_0" index="0" speed="7.40" length="7.62" shape="114.26,193.02 113.96,190.46 115.89,185.79"/>
    </edge>
    <edge id=":B3_17" function="internal">
        <lane id=":B3_17_0" index="0" speed="3.65" length="2.15" shape="120.52,194.69 120.84,194.06 122.04,193.26"/>
    </edge>
    <edge id=":B3_4" function="internal">
        <lane id=":B3_4_0" index="0" speed="5.67" length="9.24" shape="118.66,187.39 117.60,189.96 117.81,191.79 119.29,192.89 122.04,193.26"/>
    </edge>
    <edge id=":B3_5" function="internal">
        <lane id=":B3_5_0" index="0" speed="13.89" length="15.39" shape="118.66,187.39 110.96,200.72"/>
    </edge>
    <edge id=":B3_6" function="internal">
        <lane id=":B3_6_0" index="0" speed="7.40" length="6.61" shape="118.66,187.39 115.58,191.39 114.14,192.01"/>
    </edge>
    <edge id=":B3_7" function="internal">
        <lane id=":B3_7_0" index="0" speed="3.65" length="2.34" shape="118.66,187.39 117.36,188.03 116.47,187.98"/>
    </edge>
    <edge id=":B3_18" function="internal">
        <lane id=":B3_18_0" index="0" speed="7.40" length="10.19" shape="114.14,192.01 112.50,192.72 109.42,191.39 106.34,187.39"/>
    </edge>
    <edge id=":B3_19" function="internal">
        <lane id=":B3_19_0" index="0" speed="3.65" length="2.34" shape="116.47,187.98 115.98,187.23 115.89,185.79"/>
    </edge>
    <edge id=":B3_8" function="internal">
        <lane id=":B3_8_0" index="0" speed="5.67" length="9.24" shape="109.11,185.79 110.81,187.99 112.50,188.72 114.19,187.99 115.89,185.79"/>
    </edge>
    <edge id=":B3_9" function="internal">
        <lane id=":B3_9_0" index="0" speed="10.69" length="15.68" shape="109.11,185.79 111.54,189.06 114.50,191.39 118.00,192.79 122.04,193.26"/>
    </edge>
    <edge id=":B3_10" function="internal">
        <lane id=":B3_10_0" index="0" speed="10.70" length="5.70" shape="109.11,185.79 111.19,190.12 111.41,191.00"/>
    </edge>
    <edge id=":B3_11" function="internal">
        <lane id=":B3_11_0" index="0" speed="3.65" length="2.13" shape="109.11,185.79 109.02,187.23 108.64,187.80"/>
    </edge>
    <edge id=":B3_20" function="internal">
        <lane id=":B3_20_0" index="0" speed="10.70" length="10.03" shape="111.41,191.00 112.19,194.06 112.12,197.59 110.96,200.72"/>
    </edge>
    <edge id=":B3_21" function="internal">
        <lane id=":B3_21_0" index="0" speed="3.65" length="2.54" shape="108.64,187.80 108.53,187.98 107.64,188.03 106.34,187.39"/>
    </edge>
    <edge id=":B3_12" function="internal">
        <lane id=":B3_12_0" index="0" speed="9.55" length="12.39" shape="108.19,199.12 109.00,196.79 108.96,194.06 108.07,190.92 106.34,187.39"/>
    </edge>
    <edge id=":B3_13" function="internal">
        <lane id=":B3_13_0" index="0" speed="13.89" length="15.39" shape="108.19,199.12 115.89,185.79"/>
    </edge>
    <edge id=":B3_14" function="internal">
        <lane id=":B3_14_0" index="0" speed="10.70" length="5.49" shape="108.19,199.12 110.33,196.55 112.16,195.44"/>
    </edge>
    <edge id=":B3_15" function="internal">
        <lane id=":B3_15_0" index="0" speed="3.65" length="2.34" shape="108.19,199.12 109.48,198.48 110.38,198.53"/>
    </edge>
    <edge id=":B3_22" function="internal">
        <lane id=":B3_22_0" index="0" speed="10.70" length="10.25" shape="112.16,195.44 113.35,194.72 117.25,193.62 122.04,193.26"/>
    </edge>
    <edge id=":B3_23" function="internal">
        <lane id=":B3_23_0" index="0" speed="3.65" length="2.34" shape="110.38,198.53 110.87,199.28 110.96,200.72"/>
    </edge>
    <edge id=":B4_0" function="internal">
        <lane id=":B4_0_0" index="0" speed="9.55" length="12.39" shape="78.39,138.97 76.19,135.70 73.92,133.37 71.58,131.97 69.15,131.50"/>
    </edge>
    <edge id=":B4_1" function="internal">
        <lane id=":B4_1_0" index="0" speed="11.73" length="19.04" shape="78.39,138.97 76.42,134.44 75.77,129.90 76.42,125.37 78.39,120.84"/>
    </edge>
    <edge id=":B4_2" function="internal">
        <lane id=":B4_2_0" index="0" speed="7.40" length="9.18" shape="78.39,138.97 76.46,134.30 76.85,130.97 77.47,130.51"/>
    </edge>
    <edge id=":B4_3" function="internal">
        <lane id=":B4_3_0" index="0" speed="3.65" length="2.52" shape="78.39,138.97 78.48,137.53 78.97,136.78 79.15,136.77"/>
    </edge>
    <edge id=":B4_16" function="internal">
        <lane id=":B4_16_0" index="0" speed="7.40" length="7.62" shape="77.47,130.51 79.54,128.97 84.54,128.30"/>
    </edge>
    <edge id=":B4_17" function="internal">
        <lane id=":B4_17_0" index="0" speed="3.65" length="2.15" shape="79.15,136.77 79.86,136.73 81.16,137.37"/>
    </edge>
    <edge id=":B4_4" function="internal">
        <lane id=":B4_4_0" index="0" speed="5.67" length="9.24" shape="84.54,131.50 81.79,131.87 80.31,132.97 80.10,134.80 81.16,137.37"/>
    </edge>
    <edge id=":B4_5" function="internal">
        <lane id=":B4_5_0" index="0" speed="13.89" length="15.39" shape="84.54,131.50 69.15,131.50"/>
    </edge>
    <edge id=":B4_6" function="internal">
        <lane id=":B4_6_0" index="0" speed="7.40" length="6.61" shape="84.54,131.50 79.54,130.84 78.28,129.90"/>
    </edge>
    <edge id=":B4_7" function="internal">
        <lane id=":B4_7_0" index="0" speed="3.65" length="2.34" shape="84.54,131.50 83.34,130.70 82.94,129.90"/>
    </edge>
    <edge id=":B4_18" function="internal">
        <lane id=":B4_18_0" index="0" speed="7.40" length="10.19" shape="78.28,129.90 76.85,128.84 76.46,125.51 78.39,120.84"/>
    </edge>
    <edge id=":B4_19" function="internal">
        <lane id=":B4_19_0" index="0" speed="3.65" length="2.34" shape="82.94,129.90 83.34,129.10 84.54,128.30"/>
    </edge>
    <edge id=":B4_8" function="internal">
        <lane id=":B4_8_0" index="0" speed="5.67" length="9.24" shape="81.16,122.44 80.10,125.01 80.31,126.84 81.79,127.94 84.54,128.30"/>
    </edge>
    <edge id=":B4_9" function="internal">
        <lane id=":B4_9_0" index="0" speed="10.69" length="15.68" shape="81.16,122.44 79.54,126.17 79.00,129.90 79.54,133.64 81.16,137.37"/>
    </edge>
    <edge id=":B4_10" function="internal">
        <lane id=":B4_10_0" index="0" speed="10.70" length="5.70" shape="81.16,122.44 78.44,126.41 77.80,127.03"/>
    </edge>
    <edge id=":B4_11" function="internal">
        <lane id=":B4_11_0" index="0" speed="3.65" length="2.13" shape="81.16,122.44 79.86,123.08 79.18,123.04"/>
    </edge>
    <edge id=":B4_20" function="internal">
        <lane id=":B4_20_0" index="0" speed="10.70" length="10.03" shape="77.80,127.03 75.54,129.24 72.44,130.94 69.15,131.50"/>
    </edge>
    <edge id=":B4_21" function="internal">
        <lane id=":B4_21_0" index="0" speed="3.65" length="2.54" shape="79.18,123.04 78.97,123.03 78.48,122.28 78.39,120.84"/>
    </edge>
    <edge id=":B4_12" function="internal">
        <lane id=":B4_12_0" index="0" speed="9.55" length="12.39" shape="69.15,128.30 71.58,127.84 73.92,126.44 76.19,124.11 78.39,120.84"/>
    </edge>
    <edge id=":B4_13" function="internal">
        <lane id=":B4_13_0" index="0" speed="13.89" length="15.39" shape="69.15,128.30 84.54,128.30"/>
    </edge>
    <edge id=":B4_14" function="internal">
        <lane id=":B4_14_0" index="0" speed="10.70" length="5.49" shape="69.15,128.30 72.44,128.87 74.33,129.90"/>
    </edge>
    <edge id=":B4_15" function="internal">
        <lane id=":B4_15_0" index="0" speed="3.65" length="2.34" shape="69.15,128.30 70.35,129.10 70.75,129.90"/>
    </edge>
    <edge id=":B4_22" function="internal">
        <lane id=":B4_22_0" index="0" speed="10.70" length="10.25" shape="74.33,129.90 75.54,130.57 78.44,133.40 81.16,137.37"/>
    </edge>
    <edge id=":B4_23" function="internal">
        <lane id=":B4_23_0" index="0" speed="3.65" length="2.34" shape="70.75,129.90 70.35,130.70 69.15,131.50"/>
    </edge>
    <edge id=":B5_0" function="internal">
        <lane id=":B5_0_0" index="0" speed="5.67" length="9.24" shape="115.89,74.02 114.19,71.82 112.50,71.08 110.81,71.82 109.11,74.02"/>
    </edge>
    <edge id=":B5_1" function="internal">
        <lane id=":B5_1_0" index="0" speed="13.89" length="15.39" shape="115.89,74.02 108.19,60.69"/>
    </edge>
    <edge id=":B5_2" function="internal">
        <lane id=":B5_2_0" index="0" speed="7.40" length="6.61" shape="115.89,74.02 113.96,69.35 114.14,67.79"/>
    </edge>
    <edge id=":B5_3" function="internal">
        <lane id=":B5_3_0" index="0" speed="3.65" length="2.34" shape="115.89,74.02 115.98,72.58 116.47,71.83"/>
    </edge>
    <edge id=":B5_16" function="internal">
        <lane id=":B5_16_0" index="0" speed="7.40" length="10.19" shape="114.14,67.79 114.35,66.02 117.04,64.02 122.04,63.35"/>
    </edge>
    <edge id=":B5_17" function="internal">
        <lane id=":B5_17_0" index="0" speed="3.65" length="2.34" shape="116.47,71.83 117.36,71.78 118.66,72.42"/>
    </edge>
    <edge id=":B5_4" function="internal">
        <lane id=":B5_4_0" index="0" speed="5.67" length="9.24" shape="122.04,66.55 119.29,66.92 117.81,68.02 117.60,69.85 118.66,72.42"/>
    </edge>
    <edge id=":B5_5" function="internal">
        <lane id=":B5_5_0" index="0" speed="10.69" length="15.68" shape="122.04,66.55 118.00,67.02 114.50,68.42 111.54,70.75 109.11,74.02"/>
    </edge>
    <edge id=":B5_6" function="internal">
        <lane id=":B5_6_0" index="0" speed="10.70" length="5.70" shape="122.04,66.55 117.25,66.19 116.39,65.94"/>
    </edge>
    <edge id=":B5_7" function="internal">
        <lane id=":B5_7_0" index="0" speed="3.65" length="2.13" shape="122.04,66.55 120.84,65.75 120.53,65.14"/>
    </edge>
    <edge id=":B5_18" function="internal">
        <lane id=":B5_18_0" index="0" speed="10.70" length="10.03" shape="116.39,65.94 113.35,65.09 110.33,63.25 108.19,60.69"/>
    </edge>
    <edge id=":B5_19" function="internal">
        <lane id=":B5_19_0" index="0" speed="3.65" length="2.54" shape="120.53,65.14 120.44,64.95 120.84,64.15 122.04,63.35"/>
    </edge>
    <edge id=":B5_8" function="internal">
        <lane id=":B5_8_0" index="0" speed="9.55" length="12.39" shape="110.96,59.09 112.58,60.95 114.96,62.29 118.12,63.09 122.04,63.35"/>
    </edge>
    <edge id=":B5_9" function="internal">
        <lane id=":B5_9_0" index="0" speed="13.89" length="15.39" shape="110.96,59.09 118.66,72.42"/>
    </edge>
    <edge id=":B5_10" function="internal">
        <lane id=":B5_10_0" index="0" speed="10.70" length="5.49" shape="110.96,59.09 112.12,62.22 112.16,64.37"/>
    </edge>
    <edge id=":B5_11" function="internal">
        <lane id=":B5_11_0" index="0" speed="3.65" length="2.34" shape="110.96,59.09 110.87,60.53 110.38,61.27"/>
    </edge>
    <edge id=":B5_20" function="internal">
        <lane id=":B5_20_0" index="0" speed="10.70" length="10.25" shape="112.16,64.37 112.19,65.75 111.19,69.68 109.11,74.02"/>
    </edge>
    <edge id=":B5_21" function="internal">
        <lane id=":B5_21_0" index="0" speed="3.65" length="2.34" shape="110.38,61.27 109.48,61.33 108.19,60.69"/>
    </edge>
    <edge id=":B5_12" function="internal">
        <lane id=":B5_12_0" index="0" speed="9.55" length="12.39" shape="106.34,72.42 108.07,68.88 108.96,65.75 109.00,63.02 108.19,60.69"/>
    </edge>
    <edge id=":B5_13" function="internal">
        <lane id=":B5_13_0" index="0" speed="11.73" length="19.04" shape="106.34,72.42 109.29,68.45 112.88,65.62 117.14,63.92 122.04,63.35"/>
    </edge>
    <edge id=":B5_14" function="internal">
        <lane id=":B5_14_0" index="0" speed="7.40" length="9.18" shape="106.34,72.42 109.42,68.42 112.50,67.08 113.22,67.39"/>
    </edge>
    <edge id=":B5_15" function="internal">
        <lane id=":B5_15_0" index="0" speed="3.65" length="2.52" shape="106.34,72.42 107.64,71.78 108.53,71.83 108.63,71.98"/>
    </edge>
    <edge id=":B5_22" function="internal">
        <lane id=":B5_22_0" index="0" speed="7.40" length="7.62" shape="113.22,67.39 115.58,68.42 118.66,72.42"/>
    </edge>
    <edge id=":B5_23" function="internal">
        <lane id=":B5_23_0" index="0" speed="3.65" length="2.15" shape="108.63,71.98 109.02,72.58 109.11,74.02"/>
    </edge>
    <edge id=":B6_0" function="internal">