<?xml version="1.0" encoding="UTF-8"?>

<!-- generated on Tue Aug 23 12:32:40 2022 by Eclipse SUMO netgenerate Version 1.1.0
<configuration xmlns:xsi="http://www.w3.org/2001/XMLSchema-instance" xsi:noNamespaceSchemaLocation="http://sumo.dlr.de/xsd/netgenerateConfiguration.xsd">

    <spider_network>
        <spider value="true"/>
        <spider.arm-number value="6"/>
        <spider.circle-number value="2"/>
        <spider.space-radius value="100"/>
    </spider_network>

    <output>
        <output-file value="map.net.xml"/>
    </output>

    <building_defaults>
        <default.lanenumber value="1"/>
        <default-junction-type value="traffic_light"/>
    </building_defaults>

</configuration>
-->

<net version="1.1" junctionCornerDetail="5" limitTurnSpeed="5.50" xmlns:xsi="http://www.w3.org/2001/XMLSchema-instance" xsi:noNamespaceSchemaLocation="http://sumo.dlr.de/xsd/net_file.xsd">

    <location netOffset="200.00,173.21" convBoundary="0.00,0.00,400.00,346.41" origBoundary="-200.00,-173.21,200.00,173.21" projParameter="!"/>

    <edge id=":A1_0" function="internal">
        <lane id=":A1_0_0" index="0" speed="5.67" length="9.24" shape="203.39,182.27 201.69,180.07 200.00,179.34 198.31,180.07 196.61,182.27"/>
    </edge>
    <edge id=":A1_1" function="internal">
        <lane id=":A1_1_0" index="0" speed="10.69" length="15.68" shape="203.39,182.27 200.96,179.00 198.00,176.67 194.50,175.27 190.46,174.81"/>
    </edge>
    <edge id=":A1_2" function="internal">
        <lane id=":A1_2_0" index="0" speed="13.89" length="19.09" shape="203.39,182.27 193.84,165.74"/>
    </edge>
    <edge id=":A1_3" function="internal">
        <lane id=":A1_3_0" index="0" speed="11.73" length="19.04" shape="203.39,182.27 201.42,177.74 200.77,173.21 201.42,168.67 203.39,164.14"/>
    </edge>
    <edge id=":A1_4" function="internal">
        <lane id=":A1_4_0" index="0" speed="7.40" length="16.80" shape="203.39,182.27 201.46,177.60 201.85,174.27 204.54,172.27 209.54,171.61"/>
    </edge>
    <edge id=":A1_5" function="internal">
        <lane id=":A1_5_0" index="0" speed="3.65" length="4.67" shape="203.39,182.27 203.48,180.83 203.97,180.08 204.86,180.03 206.16,180.67"/>
    </edge>
    <edge id=":A1_6" function="internal">
        <lane id=":A1_6_0" index="0" speed="5.67" length="9.24" shape="209.54,174.81 206.79,175.17 205.31,176.27 205.10,178.10 206.16,180.67"/>
    </edge>
    <edge id=":A1_7" function="internal">
        <lane id=":A1_7_0" index="0" speed="10.69" length="15.68" shape="209.54,174.81 205.50,175.27 202.00,176.67 199.04,179.00 196.61,182.27"/>
    </edge>
    <edge id=":A1_8" function="internal">
        <lane id=":A1_8_0" index="0" speed="13.89" length="19.09" shape="209.54,174.81 190.46,174.81"/>
    </edge>
    <edge id=":A1_9" function="internal">
        <lane id=":A1_9_0" index="0" speed="11.73" length="9.24" shape="209.54,174.81 204.64,174.24 200.64,172.64"/>
    </edge>
    <edge id=":A1_10" function="internal">
        <lane id=":A1_10_0" index="0" speed="7.40" length="16.80" shape="209.54,174.81 204.54,174.14 201.85,172.14 201.46,168.81 203.39,164.14"/>
    </edge>
    <edge id=":A1_11" function="internal">
        <lane id=":A1_11_0" index="0" speed="3.65" length="4.67" shape="209.54,174.81 208.34,174.01 207.94,173.21 208.34,172.41 209.54,171.61"/>
    </edge>
    <edge id=":A1_36" function="internal">
        <lane id=":A1_36_0" index="0" speed="11.73" length="9.79" shape="200.64,172.64 200.38,172.54 196.79,169.71 193.84,165.74"/>
    </edge>
    <edge id=":A1_12" function="internal">
        <lane id=":A1_12_0" index="0" speed="5.67" length="9.24" shape="206.16,165.74 205.10,168.31 205.31,170.14 206.79,171.24 209.54,171.61"/>
    </edge>
    <edge id=":A1_13" function="internal">
        <lane id=":A1_13_0" index="0" speed="10.69" length="15.68" shape="206.16,165.74 204.54,169.47 204.00,173.21 204.54,176.94 206.16,180.67"/>
    </edge>
    <edge id=":A1_14" function="internal">
        <lane id=":A1_14_0" index="0" speed="13.89" length="19.09" shape="206.16,165.74 196.61,182.27"/>
    </edge>
    <edge id=":A1_15" function="internal">
        <lane id=":A1_15_0" index="0" speed="11.73" length="19.04" shape="206.16,165.74 203.21,169.71 199.62,172.54 195.36,174.24 190.46,174.81"/>
    </edge>
    <edge id=":A1_16" function="internal">
        <lane id=":A1_16_0" index="0" speed="7.40" length="16.80" shape="206.16,165.74 203.08,169.74 200.00,171.07 196.92,169.74 193.84,165.74"/>
    </edge>
    <edge id=":A1_17" function="internal">
        <lane id=":A1_17_0" index="0" speed="3.65" length="4.67" shape="206.16,165.74 204.86,166.38 203.97,166.33 203.48,165.58 203.39,164.14"/>
    </edge>
    <edge id=":A1_18" function="internal">
        <lane id=":A1_18_0" index="0" speed="5.67" length="9.24" shape="196.61,164.14 198.31,166.34 200.00,167.07 201.69,166.34 203.39,164.14"/>
    </edge>
    <edge id=":A1_19" function="internal">
        <lane id=":A1_19_0" index="0" speed="10.69" length="15.68" shape="196.61,164.14 199.04,167.41 202.00,169.74 205.50,171.14 209.54,171.61"/>
    </edge>
    <edge id=":A1_20" function="internal">
        <lane id=":A1_20_0" index="0" speed="13.89" length="19.09" shape="196.61,164.14 206.16,180.67"/>
    </edge>
    <edge id=":A1_21" function="internal">
        <lane id=":A1_21_0" index="0" speed="11.73" length="19.04" shape="196.61,164.14 198.58,168.67 199.23,173.21 198.58,177.74 196.61,182.27"/>
    </edge>
    <edge id=":A1_22" function="internal">
        <lane id=":A1_22_0" index="0" speed="7.40" length="16.80" shape="196.61,164.14 198.54,168.81 198.15,172.14 195.46,174.14 190.46,174.81"/>
    </edge>
    <edge id=":A1_23" function="internal">
        <lane id=":A1_23_0" index="0" speed="3.65" length="4.67" shape="196.61,164.14 196.52,165.58 196.03,166.33 195.14,166.38 193.84,165.74"/>
    </edge>
    <edge id=":A1_24" function="internal">
        <lane id=":A1_24_0" index="0" speed="5.67" length="9.24" shape="190.46,171.61 193.21,171.24 194.69,170.14 194.90,168.31 193.84,165.74"/>
    </edge>
    <edge id=":A1_25" function="internal">
        <lane id=":A1_25_0" index="0" speed="10.69" length="15.68" shape="190.46,171.61 194.50,171.14 198.00,169.74 200.96,167.41 203.39,164.14"/>
    </edge>
    <edge id=":A1_26" function="internal">
        <lane id=":A1_26_0" index="0" speed="13.89" length="19.09" shape="190.46,171.61 209.54,171.61"/>
    </edge>
    <edge id=":A1_27" function="internal">
        <lane id=":A1_27_0" index="0" speed="11.73" length="9.24" shape="190.46,171.61 195.36,172.17 199.36,173.77"/>
    </edge>
    <edge id=":A1_28" function="internal">
        <lane id=":A1_28_0" index="0" speed="7.40" length="16.80" shape="190.46,171.61 195.46,172.27 198.15,174.27 198.54,177.60 196.61,182.27"/>
    </edge>
    <edge id=":A1_29" function="internal">
        <lane id=":A1_29_0" index="0" speed="3.65" length="4.67" shape="190.46,171.61 191.66,172.41 192.06,173.21 191.66,174.01 190.46,174.81"/>
    </edge>
    <edge id=":A1_37" function="internal">
        <lane id=":A1_37_0" index="0" speed="11.73" length="9.79" shape="199.36,173.77 199.62,173.87 203.21,176.70 206.16,180.67"/>
    </edge>
    <edge id=":A1_30" function="internal">
        <lane id=":A1_30_0" index="0" speed="5.67" length="9.24" shape="193.84,180.67 194.90,178.10 194.69,176.27 193.21,175.17 190.46,174.81"/>
    </edge>
    <edge id=":A1_31" function="internal">
        <lane id=":A1_31_0" index="0" speed="10.69" length="15.68" shape="193.84,180.67 195.46,176.94 196.00,173.21 195.46,169.47 193.84,165.74"/>
    </edge>
    <edge id=":A1_32" function="internal">
        <lane id=":A1_32_0" index="0" speed="13.89" length="19.09" shape="193.84,180.67 203.39,164.14"/>
    </edge>
    <edge id=":A1_33" function="internal">
        <lane id=":A1_33_0" index="0" speed="11.73" length="19.04" shape="193.84,180.67 196.79,176.70 200.38,173.87 204.64,172.17 209.54,171.61"/>
    </edge>
    <edge id=":A1_34" function="internal">
        <lane id=":A1_34_0" index="0" speed="7.40" length="16.80" shape="193.84,180.67 196.92,176.67 200.00,175.34 203.08,176.67 206.16,180.67"/>
    </edge>
    <edge id=":A1_35" function="internal">
        <lane id=":A1_35_0" index="0" speed="3.65" length="4.67" shape="193.84,180.67 195.14,180.03 196.03,180.08 196.52,180.83 196.61,182.27"/>
    </edge>
    <edge id=":B1_0" function="internal">
        <lane id=":B1_0_0" index="0" speed="9.55" length="12.39" shape="305.85,174.81 303.42,175.27 301.08,176.67 298.81,179.00 296.61,182.27"/>
    </edge>
    <edge id=":B1_1" function="internal">
        <lane id=":B1_1_0" index="0" speed="13.89" length="15.39" shape="305.85,174.81 290.46,174.81"/>
    </edge>
    <edge id=":B1_2" function="internal">
        <lane id=":B1_2_0" index="0" speed="10.70" length="5.49" shape="305.85,174.81 302.56,174.24 300.67,173.21"/>
    </edge>
    <edge id=":B1_3" function="internal">
        <lane id=":B1_3_0" index="0" speed="3.65" length="2.34" shape="305.85,174.81 304.65,174.01 304.25,173.21"/>
    </edge>
    <edge id=":B1_16" function="internal">
        <lane id=":B1_16_0" index="0" speed="10.70" length="10.25" shape="300.67,173.21 299.46,172.54 296.56,169.71 293.84,165.74"/>
    </edge>
    <edge id=":B1_17" function="internal">
        <lane id=":B1_17_0" index="0" speed="3.65" length="2.34" shape="304.25,173.21 304.65,172.41 305.85,171.61"/>
    </edge>
    <edge id=":B1_4" function="internal">
        <lane id=":B1_4_0" index="0" speed="9.55" length="12.39" shape="296.61,164.14 298.81,167.41 301.08,169.74 303.42,171.14 305.85,171.61"/>
    </edge>
    <edge id=":B1_5" function="internal">
        <lane id=":B1_5_0" index="0" speed="11.73" length="19.04" shape="296.61,164.14 298.58,168.67 299.23,173.21 298.58,177.74 296.61,182.27"/>
    </edge>
    <edge id=":B1_6" function="internal">
        <lane id=":B1_6_0" index="0" speed="7.40" length="9.18" shape="296.61,164.14 298.54,168.81 298.15,172.14 297.53,172.60"/>
    </edge>
    <edge id=":B1_7" function="internal">
        <lane id=":B1_7_0" index="0" speed="3.65" length="2.52" shape="296.61,164.14 296.52,165.58 296.03,166.33 295.85,166.34"/>
    </edge>
    <edge id=":B1_18" function="internal">
        <lane id=":B1_18_0" index="0" speed="7.40" length="7.62" shape="297.53,172.60 295.46,174.14 290.46,174.81"/>
    </edge>
    <edge id=":B1_19" function="internal">
        <lane id=":B1_19_0" index="0" speed="3.65" length="2.15" shape="295.85,166.34 295.14,166.38 293.84,165.74"/>
    </edge>
    <edge id=":B1_8" function="internal">
        <lane id=":B1_8_0" index="0" speed="5.67" length="9.24" shape="290.46,171.61 293.21,171.24 294.69,170.14 294.90,168.31 293.84,165.74"/>
    </edge>
    <edge id=":B1_9" function="internal">
        <lane id=":B1_9_0" index="0" speed="13.89" length="15.39" shape="290.46,171.61 305.85,171.61"/>
    </edge>
    <edge id=":B1_10" function="internal">
        <lane id=":B1_10_0" index="0" speed="7.40" length="6.61" shape="290.46,171.61 295.46,172.27 296.72,173.21"/>
    </edge>
    <edge id=":B1_11" function="internal">
        <lane id=":B1_11_0" index="0" speed="3.65" length="2.34" shape="290.46,171.61 291.66,172.41 292.06,173.21"/>
    </edge>
    <edge id=":B1_20" function="internal">
        <lane id=":B1_20_0" index="0" speed="7.40" length="10.19" shape="296.72,173.21 298.15,174.27 298.54,177.60 296.61,182.27"/>
    </edge>
    <edge id=":B1_21" function="internal">
        <lane id=":B1_21_0" index="0" speed="3.65" length="2.34" shape="292.06,173.21 291.66,174.01 290.46,174.81"/>
    </edge>
    <edge id=":B1_12" function="internal">
        <lane id=":B1_12_0" index="0" speed="5.67" length="9.24" shape="293.84,180.67 294.90,178.10 294.69,176.27 293.21,175.17 290.46,174.81"/>
    </edge>
    <edge id=":B1_13" function="internal">
        <lane id=":B1_13_0" index="0" speed="10.69" length="15.68" shape="293.84,180.67 295.46,176.94 296.00,173.21 295.46,169.47 293.84,165.74"/>
    </edge>
    <edge id=":B1_14" function="internal">
        <lane id=":B1_14_0" index="0" speed="10.70" length="5.70" shape="293.84,180.67 296.56,176.70 297.20,176.08"/>
    </edge>
    <edge id=":B1_15" function="internal">
        <lane id=":B1_15_0" index="0" speed="3.65" length="2.13" shape="293.84,180.67 295.14,180.03 295.82,180.07"/>
    </edge>
    <edge id=":B1_22" function="internal">
        <lane id=":B1_22_0" index="0" speed="10.70" length="10.03" shape="297.20,176.08 299.46,173.87 302.56,172.17 305.85,171.61"/>
    </edge>
    <edge id=":B1_23" function="internal">
        <lane id=":B1_23_0" index="0" speed="3.65" length="2.54" shape="295.82,180.07 296.03,180.08 296.52,180.83 296.61,182.27"/>
    </edge>
    <edge id=":B2_0" function="internal">
        <lane id=":B2_0_0" index="0" speed="9.55" length="12.39" shape="251.54,265.67 249.92,263.81 247.54,262.47 244.38,261.67 240.46,261.41"/>
    </edge>
    <edge id=":B2_1" function="internal">
        <lane id=":B2_1_0" index="0" speed="13.89" length="15.39" shape="251.54,265.67 243.84,252.34"/>
    </edge>
    <edge id=":B2_2" function="internal">
        <lane id=":B2_2_0" index="0" speed="10.70" length="5.49" shape="251.54,265.67 250.38,262.54 250.34,260.39"/>
    </edge>
    <edge id=":B2_3" function="internal">
        <lane id=":B2_3_0" index="0" speed="3.65" length="2.34" shape="251.54,265.67 251.63,264.23 252.12,263.49"/>
    </edge>
    <edge id=":B2_16" function="internal">
        <lane id=":B2_16_0" index="0" speed="10.70" length="10.25" shape="250.34,260.39 250.31,259.01 251.31,255.08 253.39,250.74"/>
    </edge>
    <edge id=":B2_17" function="internal">
        <lane id=":B2_17_0" index="0" speed="3.65" length="2.34" shape="252.12,263.49 253.02,263.43 254.31,264.07"/>
    </edge>
    <edge id=":B2_4" function="internal">
        <lane id=":B2_4_0" index="0" speed="9.55" length="12.39" shape="256.16,252.34 254.43,255.88 253.54,259.01 253.50,261.74 254.31,264.07"/>
    </edge>
    <edge id=":B2_5" function="internal">
        <lane id=":B2_5_0" index="0" speed="11.73" length="19.04" shape="256.16,252.34 253.21,256.31 249.62,259.14 245.36,260.84 240.46,261.41"/>
    </edge>
    <edge id=":B2_6" function="internal">
        <lane id=":B2_6_0" index="0" speed="7.40" length="9.18" shape="256.16,252.34 253.08,256.34 250.00,257.68 249.28,257.37"/>
    </edge>
    <edge id=":B2_7" function="internal">
        <lane id=":B2_7_0" index="0" speed="3.65" length="2.52" shape="256.16,252.34 254.86,252.98 253.97,252.93 253.87,252.78"/>
    </edge>
    <edge id=":B2_18" function="internal">
        <lane id=":B2_18_0" index="0" speed="7.40" length="7.62" shape="249.28,257.37 246.92,256.34 243.84,252.34"/>
    </edge>
    <edge id=":B2_19" function="internal">
        <lane id=":B2_19_0" index="0" speed="3.65" length="2.15" shape="253.87,252.78 253.48,252.18 253.39,250.74"/>
    </edge>
    <edge id=":B2_8" function="internal">
        <lane id=":B2_8_0" index="0" speed="5.67" length="9.24" shape="246.61,250.74 248.31,252.94 250.00,253.68 251.69,252.94 253.39,250.74"/>
    </edge>
    <edge id=":B2_9" function="internal">
        <lane id=":B2_9_0" index="0" speed="13.89" length="15.39" shape="246.61,250.74 254.31,264.07"/>
    </edge>
    <edge id=":B2_10" function="internal">
        <lane id=":B2_10_0" index="0" speed="7.40" length="6.61" shape="246.61,250.74 248.54,255.41 248.36,256.96"/>
    </edge>
    <edge id=":B2_11" function="internal">
        <lane id=":B2_11_0" index="0" speed="3.65" length="2.34" shape="246.61,250.74 246.52,252.18 246.03,252.93"/>
    </edge>
    <edge id=":B2_20" function="internal">
        <lane id=":B2_20_0" index="0" speed="7.40" length="10.19" shape="248.36,256.96 248.15,258.74 245.46,260.74 240.46,261.41"/>
    </edge>
    <edge id=":B2_21" function="internal">
        <lane id=":B2_21_0" index="0" speed="3.65" length="2.34" shape="246.03,252.93 245.14,252.98 243.84,252.34"/>
    </edge>
    <edge id=":B2_12" function="internal">
        <lane id=":B2_12_0" index="0" speed="5.67" length="9.24" shape="240.46,258.21 243.21,257.84 244.69,256.74 244.90,254.91 243.84,252.34"/>
    </edge>
    <edge id=":B2_13" function="internal">
        <lane id=":B2_13_0" index="0" speed="10.69" length="15.68" shape="240.46,258.21 244.50,257.74 248.00,256.34 250.96,254.01 253.39,250.74"/>
    </edge>
    <edge id=":B2_14" function="internal">
        <lane id=":B2_14_0" index="0" speed="10.70" length="5.70" shape="240.46,258.21 245.25,258.57 246.11,258.82"/>
    </edge>
    <edge id=":B2_15" function="internal">
        <lane id=":B2_15_0" index="0" speed="3.65" length="2.13" shape="240.46,258.21 241.66,259.01 241.97,259.62"/>
    </edge>
    <edge id=":B2_22" function="internal">
        <lane id=":B2_22_0" index="0" speed="10.70" length="10.03" shape="246.11,258.82 249.15,259.67 252.17,261.51 254.31,264.07"/>
    </edge>
    <edge id=":B2_23" function="internal">
        <lane id=":B2_23_0" index="0" speed="3.65" length="2.54" shape="241.97,259.62 242.06,259.81 241.66,260.61 240.46,261.41"/>
    </edge>
    <edge id=":B3_0" function="internal">
        <lane id=":B3_0_0" index="0" speed="9.55" length="12.39" shape="159.54,261.41 155.62,261.67 152.46,262.47 150.08,263.81 148.46,265.67"/>
    </edge>
    <edge id=":B3_1" function="internal">
        <lane id=":B3_1_0" index="0" speed="11.73" length="19.04" shape="159.54,261.41 154.64,260.84 150.38,259.14 146.79,256.31 143.84,252.34"/>
    </edge>
    <edge id=":B3_2" function="internal">
        <lane id=":B3_2_0" index="0" speed="7.40" length="9.18" shape="159.54,261.41 154.54,260.74 151.85,258.74 151.76,257.97"/>
    </edge>
    <edge id=":B3_3" function="internal">
        <lane id=":B3_3_0" index="0" speed="3.65" length="2.52" shape="159.54,261.41 158.34,260.61 157.94,259.81 158.02,259.64"/>
    </edge>
    <edge id=":B3_16" function="internal">
        <lane id=":B3_16_0" index="0" speed="7.40" length="7.62" shape="151.76,257.97 151.46,255.41 153.39,250.74"/>
    </edge>
    <edge id=":B3_17" function="internal">
        <lane id=":B3_17_0" index="0" speed="3.65" length="2.15" shape="158.02,259.64 158.34,259.01 159.54,258.21"/>
    </edge>
    <edge id=":B3_4" function="internal">
        <lane id=":B3_4_0" index="0" speed="5.67" length="9.24" shape="156.16,252.34 155.10,254.91 155.31,256.74 156.79,257.84 159.54,258.21"/>
    </edge>
    <edge id=":B3_5" function="internal">
        <lane id=":B3_5_0" index="0" speed="13.89" length="15.39" shape="156.16,252.34 148.46,265.67"/>
    </edge>
    <edge id=":B3_6" function="internal">
        <lane id=":B3_6_0" index="0" speed="7.40" length="6.61" shape="156.16,252.34 153.08,256.34 151.64,256.96"/>
    </edge>
    <edge id=":B3_7" function="internal">
        <lane id=":B3_7_0" index="0" speed="3.65" length="2.34" shape="156.16,252.34 154.86,252.98 153.97,252.93"/>
    </edge>
    <edge id=":B3_18" function="internal">
        <lane id=":B3_18_0" index="0" speed="7.40" length="10.19" shape="151.64,256.96 150.00,257.68 146.92,256.34 143.84,252.34"/>
    </edge>
    <edge id=":B3_19" function="internal">
        <lane id=":B3_19_0" index="0" speed="3.65" length="2.34" shape="153.97,252.93 153.48,252.18 153.39,250.74"/>
    </edge>
    <edge id=":B3_8" function="internal">
        <lane id=":B3_8_0" index="0" speed="5.67" length="9.24" shape="146.61,250.74 148.31,252.94 150.00,253.68 151.69,252.94 153.39,250.74"/>
    </edge>
    <edge id=":B3_9" function="internal">
        <lane id=":B3_9_0" index="0" speed="10.69" length="15.68" shape="146.61,250.74 149.04,254.01 152.00,256.34 155.50,257.74 159.54,258.21"/>
    </edge>
    <edge id=":B3_10" function="internal">
        <lane id=":B3_10_0" index="0" speed="10.70" length="5.70" shape="146.61,250.74 148.69,255.08 148.91,255.95"/>
    </edge>
    <edge id=":B3_11" function="internal">
        <lane id=":B3_11_0" index="0" speed="3.65" length="2.13" shape="146.61,250.74 146.52,252.18 146.14,252.76"/>
    </edge>
    <edge id=":B3_20" function="internal">
        <lane id=":B3_20_0" index="0" speed="10.70" length="10.03" shape="148.91,255.95 149.69,259.01 149.62,262.54 148.46,265.67"/>
    </edge>
    <edge id=":B3_21" function="internal">
        <lane id=":B3_21_0" index="0" speed="3.65" length="2.54" shape="146.14,252.76 146.03,252.93 145.14,252.98 143.84,252.34"/>
    </edge>
    <edge id=":B3_12" function="internal">
        <lane id=":B3_12_0" index="0" speed="9.55" length="12.39" shape="145.69,264.07 146.50,261.74 146.46,259.01 145.57,255.88 143.84,252.34"/>
    </edge>
    <edge id=":B3_13" function="internal">
        <lane id=":B3_13_0" index="0" speed="13.89" length="15.39" shape="145.69,264.07 153.39,250.74"/>
    </edge>
    <edge id=":B3_14" function="internal">
        <lane id=":B3_14_0" index="0" speed="10.70" length="5.49" shape="145.69,264.07 147.83,261.51 149.66,260.39"/>
    </edge>
    <edge id=":B3_15" function="internal">
        <lane id=":B3_15_0" index="0" speed="3.65" length="2.34" shape="145.69,264.07 146.98,263.43 147.88,263.49"/>
    </edge>
    <edge id=":B3_22" function="internal">
        <lane id=":B3_22_0" index="0" speed="10.70" length="10.25" shape="149.66,260.39 150.85,259.67 154.75,258.57 159.54,258.21"/>
    </edge>
    <edge id=":B3_23" function="internal">
        <lane id=":B3_23_0" index="0" speed="3.65" length="2.34" shape="147.88,263.49 148.37,264.23 148.46,265.67"/>
    </edge>
    <edge id=":B4_0" function="internal">
        <lane id=":B4_0_0" index="0" speed="9.55" length="12.39" shape="103.39,182.27 101.19,179.00 98.92,176.67 96.58,175.27 94.15,174.81"/>
    </edge>
    <edge id=":B4_1" function="internal">
        <lane id=":B4_1_0" index="0" speed="11.73" length="19.04" shape="103.39,182.27 101.42,177.74 100.77,173.21 101.42,168.67 103.39,164.14"/>
    </edge>
    <edge id=":B4_2" function="internal">
        <lane id=":B4_2_0" index="0" speed="7.40" length="9.18" shape="103.39,182.27 101.46,177.60 101.85,174.27 102.47,173.81"/>
    </edge>
    <edge id=":B4_3" function="internal">
        <lane id=":B4_3_0" index="0" speed="3.65" length="2.52" shape="103.39,182.27 103.48,180.83 103.97,180.08 104.15,180.07"/>
    </edge>
    <edge id=":B4_16" function="internal">
        <lane id=":B4_16_0" index="0" speed="7.40" length="7.62" shape="102.47,173.81 104.54,172.27 109.54,171.61"/>
    </edge>
    <edge id=":B4_17" function="internal">
        <lane id=":B4_17_0" index="0" speed="3.65" length="2.15" shape="104.15,180.07 104.86,180.03 106.16,180.67"/>
    </edge>
    <edge id=":B4_4" function="internal">
        <lane id=":B4_4_0" index="0" speed="5.67" length="9.24" shape="109.54,174.81 106.79,175.17 105.31,176.27 105.10,178.10 106.16,180.67"/>
    </edge>
    <edge id=":B4_5" function="internal">
        <lane id=":B4_5_0" index="0" speed="13.89" length="15.39" shape="109.54,174.81 94.15,174.81"/>
    </edge>
    <edge id=":B4_6" function="internal">
        <lane id=":B4_6_0" index="0" speed="7.40" length="6.61" shape="109.54,174.81 104.54,174.14 103.28,173.21"/>
    </edge>
    <edge id=":B4_7" function="internal">
        <lane id=":B4_7_0" index="0" speed="3.65" length="2.34" shape="109.54,174.81 108.34,174.01 107.94,173.21"/>
    </edge>
    <edge id=":B4_18" function="internal">
        <lane id=":B4_18_0" index="0" speed="7.40" length="10.19" shape="103.28,173.21 101.85,172.14 101.46,168.81 103.39,164.14"/>
    </edge>
    <edge id=":B4_19" function="internal">
        <lane id=":B4_19_0" index="0" speed="3.65" length="2.34" shape="107.94,173.21 108.34,172.41 109.54,171.61"/>
    </edge>
    <edge id=":B4_8" function="internal">
        <lane id=":B4_8_0" index="0" speed="5.67" length="9.24" shape="106.16,165.74 105.10,168.31 105.31,170.14 106.79,171.24 109.54,171.61"/>
    </edge>
    <edge id=":B4_9" function="internal">
        <lane id=":B4_9_0" index="0" speed="10.69" length="15.68" shape="106.16,165.74 104.54,169.47 104.00,173.21 104.54,176.94 106.16,180.67"/>
    </edge>
    <edge id=":B4_10" function="internal">
        <lane id=":B4_10_0" index="0" speed="10.70" length="5.70" shape="106.16,165.74 103.44,169.71 102.80,170.33"/>
    </edge>
    <edge id=":B4_11" function="internal">
        <lane id=":B4_11_0" index="0" speed="3.65" length="2.13" shape="106.16,165.74 104.86,166.38 104.18,166.34"/>
    </edge>
    <edge id=":B4_20" function="internal">
        <lane id=":B4_20_0" index="0" speed="10.70" length="10.03" shape="102.80,170.33 100.54,172.54 97.44,174.24 94.15,174.81"/>
    </edge>
    <edge id=":B4_21" function="internal">
        <lane id=":B4_21_0" index="0" speed="3.65" length="2.54" shape="104.18,166.34 103.97,166.33 103.48,165.58 103.39,164.14"/>
    </edge>
    <edge id=":B4_12" function="internal">
        <lane id=":B4_12_0" index="0" speed="9.55" length="12.39" shape="94.15,171.61 96.58,171.14 98.92,169.74 101.19,167.41 103.39,164.14"/>
    </edge>
    <edge id=":B4_13" function="internal">
        <lane id=":B4_13_0" index="0" speed="13.89" length="15.39" shape="94.15,171.61 109.54,171.61"/>
    </edge>
    <edge id=":B4_14" function="internal">
        <lane id=":B4_14_0" index="0" speed="10.70" length="5.49" shape="94.15,171.61 97.44,172.17 99.33,173.21"/>
    </edge>
    <edge id=":B4_15" function="internal">
        <lane id=":B4_15_0" index="0" speed="3.65" length="2.34" shape="94.15,171.61 95.35,172.41 95.75,173.21"/>
    </edge>
    <edge id=":B4_22" function="internal">
        <lane id=":B4_22_0" index="0" speed="10.70" length="10.25" shape="99.33,173.21 100.54,173.87 103.44,176.70 106.16,180.67"/>
    </edge>
    <edge id=":B4_23" function="internal">
        <lane id=":B4_23_0" index="0" speed="3.65" length="2.34" shape="95.75,173.21 95.35,174.01 94.15,174.81"/>
    </edge>
    <edge id=":B5_0" function="internal">
        <lane id=":B5_0_0" index="0" speed="5.67" length="9.24" shape="153.39,95.67 151.69,93.47 150.00,92.73 148.31,93.47 146.61,95.67"/>
    </edge>
    <edge id=":B5_1" function="internal">
        <lane id=":B5_1_0" index="0" speed="13.89" length="15.39" shape="153.39,95.67 145.69,82.34"/>
    </edge>
    <edge id=":B5_2" function="internal">
        <lane id=":B5_2_0" index="0" speed="7.40" length="6.61" shape="153.39,95.67 151.46,91.00 151.64,89.45"/>
    </edge>
    <edge id=":B5_3" function="internal">
        <lane id=":B5_3_0" index="0" speed="3.65" length="2.34" shape="153.39,95.67 153.48,94.23 153.97,93.48"/>
    </edge>
    <edge id=":B5_16" function="internal">
        <lane id=":B5_16_0" index="0" speed="7.40" length="10.19" shape="151.64,89.45 151.85,87.67 154.54,85.67 159.54,85.00"/>
    </edge>
    <edge id=":B5_17" function="internal">
        <lane id=":B5_17_0" index="0" speed="3.65" length="2.34" shape="153.97,93.48 154.86,93.43 156.16,94.07"/>
    </edge>
    <edge id=":B5_4" function="internal">
        <lane id=":B5_4_0" index="0" speed="5.67" length="9.24" shape="159.54,88.20 156.79,88.57 155.31,89.67 155.10,91.50 156.16,94.07"/>
    </edge>
    <edge id=":B5_5" function="internal">
        <lane id=":B5_5_0" index="0" speed="10.69" length="15.68" shape="159.54,88.20 155.50,88.67 152.00,90.07 149.04,92.40 146.61,95.67"/>
    </edge>
    <edge id=":B5_6" function="internal">
        <lane id=":B5_6_0" index="0" speed="10.70" length="5.70" shape="159.54,88.20 154.75,87.84 153.89,87.59"/>
    </edge>
    <edge id=":B5_7" function="internal">
        <lane id=":B5_7_0" index="0" speed="3.65" length="2.13" shape="159.54,88.20 158.34,87.40 158.03,86.79"/>
    </edge>
    <edge id=":B5_18" function="internal">
        <lane id=":B5_18_0" index="0" speed="10.70" length="10.03" shape="153.89,87.59 150.85,86.74 147.83,84.90 145.69,82.34"/>
    </edge>
    <edge id=":B5_19" function="internal">
        <lane id=":B5_19_0" index="0" speed="3.65" length="2.54" shape="158.03,86.79 157.94,86.60 158.34,85.80 159.54,85.00"/>
    </edge>
    <edge id=":B5_8" function="internal">
        <lane id=":B5_8_0" index="0" speed="9.55" length="12.39" shape="148.46,80.74 150.08,82.60 152.46,83.94 155.62,84.74 159.54,85.00"/>
    </edge>
    <edge id=":B5_9" function="internal">
        <lane id=":B5_9_0" index="0" speed="13.89" length="15.39" shape="148.46,80.74 156.16,94.07"/>
    </edge>
    <edge id=":B5_10" function="internal">
        <lane id=":B5_10_0" index="0" speed="10.70" length="5.49" shape="148.46,80.74 149.62,83.87 149.66,86.02"/>
    </edge>
    <edge id=":B5_11" function="internal">
        <lane id=":B5_11_0" index="0" speed="3.65" length="2.34" shape="148.46,80.74 148.37,82.18 147.88,82.92"/>
    </edge>
    <edge id=":B5_20" function="internal">
        <lane id=":B5_20_0" index="0" speed="10.70" length="10.25" shape="149.66,86.02 149.69,87.40 148.69,91.33 146.61,95.67"/>
    </edge>
    <edge id=":B5_21" function="internal">
        <lane id=":B5_21_0" index="0" speed="3.65" length="2.34" shape="147.88,82.92 146.98,82.98 145.69,82.34"/>
    </edge>
    <edge id=":B5_12" function="internal">
        <lane id=":B5_12_0" index="0" speed="9.55" length="12.39" shape="143.84,94.07 145.57,90.53 146.46,87.40 146.50,84.67 145.69,82.34"/>
    </edge>
    <edge id=":B5_13" function="internal">
        <lane id=":B5_13_0" index="0" speed="11.73" length="19.04" shape="143.84,94.07 146.79,90.10 150.38,87.27 154.64,85.57 159.54,85.00"/>
    </edge>
    <edge id=":B5_14" function="internal">
        <lane id=":B5_14_0" index="0" speed="7.40" length="9.18" shape="143.84,94.07 146.92,90.07 150.00,88.73 150.72,89.04"/>
    </edge>
    <edge id=":B5_15" function="internal">
        <lane id=":B5_15_0" index="0" speed="3.65" length="2.52" shape="143.84,94.07 145.14,93.43 146.03,93.48 146.13,93.63"/>
    </edge>
    <edge id=":B5_22" function="internal">
        <lane id=":B5_22_0" index="0" speed="7.40" length="7.62" shape="150.72,89.04 153.08,90.07 156.16,94.07"/>
    </edge>
    <edge id=":B5_23" function="internal">
        <lane id=":B5_23_0" index="0" speed="3.65" length="2.15" shape="146.13,93.63 146.52,94.23 146.61,95.67"/>
    </edge>