<?xml version="1.0" encoding="UTF-8"?>

<!-- generated on Wed Aug 24 19:07:25 2022 by Eclipse SUMO duarouter Version 1.1.0
<configuration xmlns:xsi="http://www.w3.org/2001/XMLSchema-instance" xsi:noNamespaceSchemaLocation="http://sumo.dlr.de/xsd/duarouterConfiguration.xsd">

    <input>
        <net-file value="map.net.xml"/>
        <route-files value="passenger_trips.xml"/>
    </input>

    <output>
        <output-file value="passenger_routes.rou.xml"/>
        <alternatives-output value="passenger_routes.rou.alt.xml"/>
    </output>

    <time>
        <begin value="0.0"/>
        <end value="10.0"/>
    </time>

    <report>
        <no-warnings value="true"/>
        <ignore-errors value="true"/>
        <no-step-log value="true"/>
    </report>

</configuration>
-->

<routes xmlns:xsi="http://www.w3.org/2001/XMLSchema-instance" xsi:noNamespaceSchemaLocation="http://sumo.dlr.de/xsd/routes_file.xsd">
    <vType id="passenger" vClass="passenger"/>
    <vehicle id="passenger0" type="passenger" depart="0.00">
        <route edges="A1B2 B2A1 A1B4 B4C4"/>
    </vehicle>
    <vehicle id="passenger1" type="passenger" depart="0.05">
        <route edges="A1B4 B4A1 A1B6 B6B5"/>
    </vehicle>
    <vehicle id="passenger2" type="passenger" depart="0.10">
        <route edges="B3C3 C3B3 B3A1 A1B5 B5C5 C5C6"/>
    </vehicle>
    <vehicle id="passenger3" type="passenger" depart="0.15">
        <route edges="B1B2 B2B1 B1B6 B6B5"/>
    </vehicle>
    <vehicle id="passenger4" type="passenger" depart="0.20">
        <route edges="C2C1 C1B1 B1A1"/>
    </vehicle>
    <vehicle id="passenger5" type="passenger" depart="0.25">
        <route edges="B1C1 C1B1 B1A1 A1B4 B4A1"/>
    </vehicle>
    <vehicle id="passenger6" type="passenger" depart="0.30">
        <route edges="C4B4 B4A1 A1B2"/>
    </vehicle>
    <vehicle id="passenger7" type="passenger" depart="0.35">
        <route edges="B1A1 A1B2 B2C2 C2B2"/>
    </vehicle>
    <vehicle id="passenger8" type="passenger" depart="0.40">
        <route edges="C1C2 C2B2 B2A1 A1B2"/>
    </vehicle>
    <vehicle id="passenger9" type="passenger" depart="0.45">
        <route edges="B4A1 A1B5 B5C5 C5C4"/>
    </vehicle>
    <vehicle id="passenger10" type="passenger" depart="0.50">
        <route edges="B3B2 B2A1 A1B1"/>
    </vehicle>
    <vehicle id="passenger11" type="passenger" depart="0.55">
        <route edges="B2C2 C2B2 B2A1 A1B4 B4C4 C4B4"/>
    </vehicle>
    <vehicle id="passenger12" type="passenger" depart="0.60">
        <route edges="A1B2 B2A1 A1B6"/>
    </vehicle>
    <vehicle id="passenger13" type="passenger" depart="0.65">
        <route edges="C5C6 C6B6 B6A1 A1B3 B3A1"/>
    </vehicle>
    <vehicle id="passenger14" type="passenger" depart="0.70">
        <route edges="B6A1 A1B2 B2C2 C2C1"/>
    </vehicle>
    <vehicle id="passenger15" type="passenger" depart="0.75">
        <route edges="B5A1 A1B2 B2B1"/>
    </vehicle>
    <vehicle id="passenger16" type="passenger" depart="0.80">
        <route edges="C5B5 B5A1 A1B1 B1C1 C1B1"/>
    </vehicle>
    <vehicle id="passenger17" type="passenger" depart="0.85">
        <route edges="B2B3 B3A1 A1B5 B5C5 C5C4"/>
    </vehicle>
    <vehicle id="passenger18" type="passenger" depart="0.90">
        <route edges="B1C1 C1B1 B1B2"/>
    </vehicle>
    <vehicle id="passenger19" type="passenger" depart="0.95">
        <route edges="B1A1 A1B5 B5C5 C5C4"/>
    </vehicle>
    <vehicle id="passenger20" type="passenger" depart="1.00">
        <route edges="C5C6 C6B6 B6A1 A1B4"/>
    </vehicle>
    <vehicle id="passenger21" type="passenger" depart="1.05">
        <route edges="C3C4 C4C5"/>
    </vehicle>
    <vehicle id="passenger22" type="passenger" depart="1.10">
        <route edges="C5C4 C4B4 B4B3 B3B2"/>
    </vehicle>
    <vehicle id="passenger23" type="passenger" depart="1.15">
        <route edges="B2A1 A1B1 B1C1 C1C2"/>
    </vehicle>
    <vehicle id="passenger24" type="passenger" depart="1.20">
        <route edges="B6B5 B5A1 A1B4"/>
    </vehicle>
    <vehicle id="passenger25" type="passenger" depart="1.25">
        <route edges="C1C2 C2C3 C3C2"/>
    </vehicle>
    <vehicle id="passenger26" type="passenger" depart="1.30">
        <route edges="A1B5 B5A1 A1B3 B3C3 C3C2"/>
    </vehicle>
    <vehicle id="passenger27" type="passenger" depart="1.35">
        <route edges="B2C2 C2B2 B2A1 A1B5 B5C5 C5B5"/>
    </vehicle>
    <vehicle id="passenger28" type="passenger" depart="1.40">
        <route edges="B2C2 C2B2 B2A1 A1B6"/>
    </vehicle>
    <vehicle id="passenger29" type="passenger" depart="1.45">
        <route edges="C6C5 C5C6 C6C1 C1C6"/>
    </vehicle>
    <vehicle id="passenger30" type="passenger" depart="1.50">
        <route edges="C4C5 C5C4"/>
    </vehicle>
    <vehicle id="passenger31" type="passenger" depart="1.55">
        <route edges="C1C6 C6B6 B6B5 B5B4"/>
    </vehicle>
    <vehicle id="passenger32" type="passenger" depart="1.60">
        <route edges="B5B6 B6A1 A1B2 B2B1"/>
    </vehicle>
    <vehicle id="passenger33" type="passenger" depart="1.65">
        <route edges="B4B3 B3B2 B2C2 C2C3"/>
    </vehicle>
    <vehicle id="passenger34" type="passenger" depart="1.70">
        <route edges="C2C3"/>
    </vehicle>
    <vehicle id="passenger35" type="passenger" depart="1.75">
        <route edges="B5B6 B6A1 A1B4"/>
    </vehicle>
    <vehicle id="passenger36" type="passenger" depart="1.80">
        <route edges="C4B4 B4B3 B3C3 C3C2"/>
    </vehicle>
    <vehicle id="passenger37" type="passenger" depart="1.85">
        <route edges="C5C6 C6B6 B6A1"/>
    </vehicle>
    <vehicle id="passenger38" type="passenger" depart="1.90">
        <route edges="A1B4 B4B5 B5A1"/>
    </vehicle>
    <vehicle id="passenger39" type="passenger" depart="1.95">
        <route edges="B3C3 C3B3 B3B4 B4B3"/>
    </vehicle>
    <vehicle id="passenger40" type="passenger" depart="2.00">
        <route edges="B4B3 B3B4 B4C4 C4C3"/>
    </vehicle>
    <vehicle id="passenger41" type="passenger" depart="2.05">
        <route edges="C5B5 B5B6 B6A1"/>
    </vehicle>
    <vehicle id="passenger42" type="passenger" depart="2.10">
        <route edges="B3B4 B4B3 B3C3 C3C2"/>
    </vehicle>
    <vehicle id="passenger43" type="passenger" depart="2.15">
        <route edges="C4C3 C3B3 B3B2 B2B1 B1C1 C1C6"/>
    </vehicle>
    <vehicle id="passenger44" type="passenger" depart="2.20">
        <route edges="B6A1 A1B6 B6C6 C6C5"/>
    </vehicle>
    <vehicle id="passenger45" type="passenger" depart="2.25">
        <route edges="B3B4 B4B5 B5A1"/>
    </vehicle>
    <vehicle id="passenger46" type="passenger" depart="2.30">
        <route edges="B3B4 B4C4 C4B4"/>
    </vehicle>
    <vehicle id="passenger47" type="passenger" depart="2.35">
        <route edges="C2B2 B2B1 B1B6"/>
    </vehicle>
    <vehicle id="passenger48" type="passenger" depart="2.40">
        <route edges="C6C5 C5B5 B5A1 A1B2 B2C2"/>
    </vehicle>
    <vehicle id="passenger49" type="passenger" depart="2.45">
        <route edges="B5A1 A1B1 B1A1"/>
    </vehicle>
    <vehicle id="passenger50" type="passenger" depart="2.50">
        <route edges="C4B4 B4C4 C4C3"/>
    </vehicle>
    <vehicle id="passenger51" type="passenger" depart="2.55">
        <route edges="C6B6 B6B5 B5B4 B4C4 C4C5"/>
    </vehicle>
    <vehicle id="passenger52" type="passenger" depart="2.60">
        <route edges="B2B3 B3B2 B2B1"/>
    </vehicle>
    <vehicle id="passenger53" type="passenger" depart="2.65">
        <route edges="C6C1 C1B1 B1A1 A1B3 B3B2"/>
    </vehicle>
    <vehicle id="passenger54" type="passenger" depart="2.70">
        <route edges="B4C4 C4B4 B4A1 A1B6 B6B1"/>
    </vehicle>
    <vehicle id="passenger55" type="passenger" depart="2.75">
        <route edges="A1B4 B4A1 A1B1 B1B2"/>
    </vehicle>
    <vehicle id="passenger56" type="passenger" depart="2.80">
        <route edges="C3C2 C2B2 B2A1 A1B4 B4A1"/>
    </vehicle>
    <vehicle id="passenger57" type="passenger" depart="2.85">
        <route edges="B3B2 B2B1"/>
    </vehicle>
    <vehicle id="passenger58" type="passenger" depart="2.90">
        <route edges="A1B2 B2A1 A1B4 B4B3"/>
    </vehicle>
    <vehicle id="passenger59" type="passenger" depart="2.95">
        <route edges="B6B1 B1A1 A1B6"/>
    </vehicle>
    <vehicle id="passenger60" type="passenger" depart="3.00">
        <route edges="B2B1 B1A1 A1B3"/>
    </vehicle>
    <vehicle id="passenger61" type="passenger" depart="3.05">
        <route edges="C5C6 C6B6 B6B1 B1C1"/>
    </vehicle>
    <vehicle id="passenger62" type="passenger" depart="3.10">
        <route edges="B3B4 B4A1 A1B2 B2B3"/>
    </vehicle>
    <vehicle id="passenger63" type="passenger" depart="3.15">
        <route edges="C3B3 B3A1 A1B6 B6C6"/>
    </vehicle>
    <vehicle id="passenger64" type="passenger" depart="3.20">
        <route edges="B4C4 C4B4 B4A1 A1B5"/>
    </vehicle>
    <vehicle id="passenger65" type="passenger" depart="3.25">
        <route edges="B6C6 C6C1 C1C6"/>
    </vehicle>
    <vehicle id="passenger66" type="passenger" depart="3.30">
        <route edges="B4B3 B3B4"/>
    </vehicle>
    <vehicle id="passenger67" type="passenger" depart="3.35">
        <route edges="C3C4 C4B4 B4B3 B3B2"/>
    </vehicle>
    <vehicle id="passenger68" type="passenger" depart="3.40">
        <route edges="B6A1 A1B3"/>
    </vehicle>
    <vehicle id="passenger69" type="passenger" depart="3.45">
        <route edges="C2B2"/>
    </vehicle>
    <vehicle id="passenger70" type="passenger" depart="3.50">
        <route edges="B4A1 A1B5 B5C5 C5C4"/>
    </vehicle>
    <vehicle id="passenger71" type="passenger" depart="3.55">
        <route edges="B5A1 A1B6"/>
    </vehicle>
    <vehicle id="passenger72" type="passenger" depart="3.60">
        <route edges="C6C5 C5B5 B5B4 B4B3 B3B2"/>
    </vehicle>
    <vehicle id="passenger73" type="passenger" depart="3.65">
        <route edges="C6C1 C1B1 B1A1 A1B3"/>
    </vehicle>
    <vehicle id="passenger74" type="passenger" depart="3.70">
        <route edges="B4B3 B3B4 B4B5 B5A1"/>
    </vehicle>
    <vehicle id="passenger75" type="passenger" depart="3.75">
        <route edges="C2B2 B2B1 B1B6 B6B5"/>
    </vehicle>
    <vehicle id="passenger76" type="passenger" depart="3.80">
        <route edges="B6B5 B5A1 A1B2 B2A1"/>
    </vehicle>
    <vehicle id="passenger77" type="passenger" depart="3.85">
        <route edges="B4C4 C4B4 B4B3 B3C3"/>
    </vehicle>
    <vehicle id="passenger78" type="passenger" depart="3.90">
        <route edges="B5A1 A1B5 B5C5 C5C4"/>
    </vehicle>
    <vehicle id="passenger79" type="passenger" depart="3.95">
        <route edges="A1B4 B4A1 A1B1 B1B2"/>
    </vehicle>
    <vehicle id="passenger80" type="passenger" depart="4.00">
        <route edges="B6B5 B5A1 A1B2 B2C2 C2C3"/>
    </vehicle>
    <vehicle id="passenger81" type="passenger" depart="4.05">
        <route edges="C4C3 C3C4"/>
    </vehicle>
    <vehicle id="passenger82" type="passenger" depart="4.10">
        <route edges="C6B6 B6A1 A1B4"/>
    </vehicle>
    <vehicle id="passenger83" type="passenger" depart="4.15">
        <route edges="B5B6 B6A1 A1B1"/>
    </vehicle>
    <vehicle id="passenger84" type="passenger" depart="4.20">
        <route edges="C6B6 B6A1 A1B3 B3B2"/>
    </vehicle>
    <vehicle id="passenger85" type="passenger" depart="4.25">
        <route edges="A1B1 B1A1 A1B5 B5C5 C5B5"/>
    </vehicle>
    <vehicle id="passenger86" type="passenger" depart="4.30">
        <route edges="C3C4 C4B4 B4A1 A1B1 B1C1 C1B1"/>
    </vehicle>
    <vehicle id="passenger87" type="passenger" depart="4.35">
        <route edges="B5C5 C5C6 C6B6"/>
    </vehicle>
    <vehicle id="passenger88" type="passenger" depart="4.40">
        <route edges="C4C5 C5B5 B5A1 A1B2 B2B3"/>
    </vehicle>
    <vehicle id="passenger89" type="passenger" depart="4.45">
        <route edges="C6B6 B6B5 B5C5 C5C4"/>
    </vehicle>
    <vehicle id="passenger90" type="passenger" depart="4.50">
        <route edges="B6B5 B5B4 B4B3 B3B4"/>
    </vehicle>
    <vehicle id="passenger91" type="passenger" depart="4.55">
        <route edges="C5C4 C4B4 B4A1 A1B6 B6B1"/>
    </vehicle>
    <vehicle id="passenger92" type="passenger" depart="4.60">
        <route edges="B2A1 A1B5 B5B6"/>
    </vehicle>
    <vehicle id="passenger93" type="passenger" depart="4.65">
        <route edges="B2B1 B1A1 A1B5 B5C5 C5C4"/>
    </vehicle>
    <vehicle id="passenger94" type="passenger" depart="4.70">
        <route edges="B2B1 B1B2 B2B3 B3C3 C3C4"/>
    </vehicle>
    <vehicle id="passenger95" type="passenger" depart="4.75">
        <route edges="C2C1 C1C6 C6B6"/>
    </vehicle>
    <vehicle id="passenger96" type="passenger" depart="4.80">
        <route edges="B5A1 A1B2 B2C2 C2B2"/>
    </vehicle>
    <vehicle id="passenger97" type="passenger" depart="4.85">
        <route edges="B4B5 B5B6"/>
    </vehicle>
    <vehicle id="passenger98" type="passenger" depart="4.90">
        <route edges="C3C2 C2B2 B2A1 A1B4 B4B5"/>
    </vehicle>
    <vehicle id="passenger99" type="passenger" depart="4.95">
        <route edges="B1A1 A1B1 B1C1 C1C2"/>
    </vehicle>
    <vehicle id="passenger100" type="passenger" depart="5.00">
        <route edges="C2C1 C1B1 B1A1 A1B5 B5C5 C5B5"/>
    </vehicle>
    <vehicle id="passenger101" type="passenger" depart="5.05">
        <route edges="B4B5 B5A1 A1B1 B1C1 C1B1"/>
    </vehicle>
    <vehicle id="passenger102" type="passenger" depart="5.10">
        <route edges="B1C1 C1C6"/>
    </vehicle>
    <vehicle id="passenger103" type="passenger" depart="5.15">
        <route edges="B5C5 C5B5 B5A1 A1B1 B1C1 C1B1"/>
    </vehicle>
    <vehicle id="passenger104" type="passenger" depart="5.20">
        <route edges="B2B1 B1A1 A1B5 B5C5 C5B5"/>
    </vehicle>
    <vehicle id="passenger105" type="passenger" depart="5.25">
        <route edges="B1A1 A1B3 B3C3 C3C2"/>
    </vehicle>
    <vehicle id="passenger106" type="passenger" depart="5.30">
        <route edges="B3C3 C3B3 B3B2 B2B3"/>
    </vehicle>
    <vehicle id="passenger107" type="passenger" depart="5.35">
        <route edges="C3B3 B3B4 B4C4 C4C3"/>
    </vehicle>
    <vehicle id="passenger108" type="passenger" depart="5.40">
        <route edges="B1A1 A1B3 B3C3"/>
    </vehicle>
    <vehicle id="passenger109" type="passenger" depart="5.45">
        <route edges="B3B4"/>
    </vehicle>
    <vehicle id="passenger110" type="passenger" depart="5.50">
        <route edges="C5B5 B5C5 C5C4"/>
    </vehicle>
    <vehicle id="passenger111" type="passenger" depart="5.55">
        <route edges="A1B4 B4A1 A1B2"/>
    </vehicle>
    <vehicle id="passenger112" type="passenger" depart="5.60">
        <route edges="B4B5 B5B6 B6A1"/>
    </vehicle>
    <vehicle id="passenger113" type="passenger" depart="5.65">
        <route edges="C4C3 C3C4 C4B4"/>
    </vehicle>
    <vehicle id="passenger114" type="passenger" depart="5.70">
        <route edges="A1B5"/>
    </vehicle>
    <vehicle id="passenger115" type="passenger" depart="5.75">
        <route edges="B3B2 B2B3 B3B4 B4C4"/>
    </vehicle>
    <vehicle id="passenger116" type="passenger" depart="5.80">
        <route edges="C4C3 C3B3 B3A1 A1B6 B6C6 C6B6"/>
    </vehicle>
    <vehicle id="passenger117" type="passenger" depart="5.85">
        <route edges="B1C1 C1C6"/>
    </vehicle>
    <vehicle id="passenger118" type="passenger" depart="5.90">
        <route edges="C2C3 C3B3 B3B4"/>
    </vehicle>
    <vehicle id="passenger119" type="passenger" depart="5.95">
        <route edges="A1B5 B5B4 B4C4 C4B4"/>
    </vehicle>
    <vehicle id="passenger120" type="passenger" depart="6.00">
        <route edges="B5B4 B4B5 B5B6 B6C6"/>
    </vehicle>
    <vehicle id="passenger121" type="passenger" depart="6.05">
        <route edges="B3A1 A1B4 B4A1"/>
    </vehicle>
    <vehicle id="passenger122" type="passenger" depart="6.10">
        <route edges="C6C5 C5C4"/>
    </vehicle>
    <vehicle id="passenger123" type="passenger" depart="6.15">
        <route edges="C5B5 B5B6"/>
    </vehicle>
    <vehicle id="passenger124" type="passenger" depart="6.20">
        <route edges="B1B6 B6B1 B1B2"/>
    </vehicle>
    <vehicle id="passenger125" type="passenger" depart="6.25">
        <route edges="B5B6 B6A1 A1B3 B3B4"/>
    </vehicle>
    <vehicle id="passenger126" type="passenger" depart="6.30">
        <route edges="C3C2 C2B2 B2C2"/>
    </vehicle>
    <vehicle id="passenger127" type="passenger" depart="6.35">
        <route edges="A1B3 B3A1 A1B6 B6C6 C6B6"/>
    </vehicle>
    <vehicle id="passenger128" type="passenger" depart="6.40">
        <route edges="B5B6 B6A1"/>
    </vehicle>
    <vehicle id="passenger129" type="passenger" depart="6.45">
        <route edges="C6C5 C5B5 B5B4 B4B3"/>
    </vehicle>
    <vehicle id="passenger130" type="passenger" depart="6.50">
        <route edges="C5B5 B5A1 A1B2 B2B3"/>
    </vehicle>
    <vehicle id="passenger131" type="passenger" depart="6.55">
        <route edges="B3C3 C3B3 B3A1 A1B5 B5B6"/>
    </vehicle>
    <vehicle id="passenger132" type="passenger" depart="6.60">
        <route edges="C6B6 B6B5"/>
    </vehicle>
    <vehicle id="passenger133" type="passenger" depart="6.65">
        <route edges="B6B1 B1B2 B2A1"/>
    </vehicle>
    <vehicle id="passenger134" type="passenger" depart="6.70">
        <route edges="C6C5 C5C6 C6C1"/>
    </vehicle>
    <vehicle id="passenger135" type="passenger" depart="6.75">
        <route edges="C6C1 C1B1 B1B2"/>
    </vehicle>
    <vehicle id="passenger136" type="passenger" depart="6.80">
        <route edges="B4A1 A1B6 B6B1"/>
    </vehicle>
    <vehicle id="passenger137" type="passenger" depart="6.85">
        <route edges="C5C6 C6C1"/>
    </vehicle>
    <vehicle id="passenger138" type="passenger" depart="6.90">
        <route edges="B1B2 B2A1 A1B4 B4C4"/>
    </vehicle>
    <vehicle id="passenger139" type="passenger" depart="6.95">
        <route edges="B2A1 A1B3 B3C3 C3C4"/>
    </vehicle>
    <vehicle id="passenger140" type="passenger" depart="7.00">
        <route edges="B1B6 B6A1 A1B3 B3C3"/>
    </vehicle>
    <vehicle id="passenger141" type="passenger" depart="7.05">
        <route edges="C1C2 C2C3 C3C2"/>
    </vehicle>
    <vehicle id="passenger142" type="passenger" depart="7.10">
        <route edges="C2C1 C1B1 B1B2 B2B3"/>
    </vehicle>
    <vehicle id="passenger143" type="passenger" depart="7.15">
        <route edges="C4C3 C3B3 B3B2 B2B1 B1C1 C1C2"/>
    </vehicle>
    <vehicle id="passenger144" type="passenger" depart="7.20">
        <route edges="C5B5 B5A1 A1B3"/>
    </vehicle>
    <vehicle id="passenger145" type="passenger" depart="7.25">
        <route edges="A1B3 B3A1 A1B5 B5C5 C5C4"/>
    </vehicle>
    <vehicle id="passenger146" type="passenger" depart="7.30">
        <route edges="A1B2 B2B1 B1B2"/>
    </vehicle>
    <vehicle id="passenger147" type="passenger" depart="7.35">
        <route edges="C2C3 C3B3 B3B2 B2B1 B1A1"/>
    </vehicle>
    <vehicle id="passenger148" type="passenger" depart="7.40">
        <route edges="C4C3 C3C4 C4C5 C5B5"/>
    </vehicle>
    <vehicle id="passenger149" type="passenger" depart="7.45">
        <route edges="B3B2 B2A1 A1B3"/>
    </vehicle>
    <vehicle id="passenger150" type="passenger" depart="7.50">
        <route edges="C1C6 C6C5 C5C4"/>
    </vehicle>
    <vehicle id="passenger151" type="passenger" depart="7.55">
        <route edges="B2C2 C2B2 B2B3 B3A1"/>
    </vehicle>
    <vehicle id="passenger152" type="passenger" depart="7.60">
        <route edges="B4B3 B3B4 B4B5 B5B4"/>
    </vehicle>
    <vehicle id="passenger153" type="passenger" depart="7.65">
        <route edges="C1C6 C6B6 B6B5 B5B4 B4C4"/>
    </vehicle>
    <vehicle id="passenger154" type="passenger" depart="7.70">
        <route edges="C3C4 C4B4 B4B5"/>
    </vehicle>
    <vehicle id="passenger155" type="passenger" depart="7.75">
        <route edges="C2C3 C3B3 B3B4 B4B5"/>
    </vehicle>
    <vehicle id="passenger156" type="passenger" depart="7.80">
        <route edges="B2C2 C2B2 B2A1 A1B4"/>
    </vehicle>
    <vehicle id="passenger157" type="passenger" depart="7.85">
        <route edges="A1B2"/>
    </vehicle>
    <vehicle id="passenger158" type="passenger" depart="7.90">
        <route edges="B3B4 B4B5"/>
    </vehicle>
    <vehicle id="passenger159" type="passenger" depart="7.95">
        <route edges="C1C6 C6B6 B6B5 B5B4"/>
    </vehicle>
    <vehicle id="passenger160" type="passenger" depart="8.00">
        <route edges="C2B2 B2A1 A1B5 B5C5 C5C4"/>
    </vehicle>
    <vehicle id="passenger161" type="passenger" depart="8.05">
        <route edges="B6C6 C6C5 C5C6"/>
    </vehicle>
    <vehicle id="passenger162" type="passenger" depart="8.10">
        <route edges="B4B5 B5B4 B4B3 B3C3 C3C4"/>
    </vehicle>
    <vehicle id="passenger163" type="passenger" depart="8.15">
        <route edges="B3B4 B4A1 A1B1 B1C1"/>
    </vehicle>
    <vehicle id="passenger164" type="passenger" depart="8.20">
        <route edges="B4B3 B3B2 B2B3"/>
    </vehicle>
    <vehicle id="passenger165" type="passenger" depart="8.25">
        <route edges="C1C6 C6B6 B6B5 B5B4 B4C4 C4C5"/>
    </vehicle>
    <vehicle id="passenger166" type="passenger" depart="8.30">
        <route edges="C5C6 C6C1"/>
    </vehicle>
    <vehicle id="passenger167" type="passenger" depart="8.35">
        <route edges="C5B5 B5B6"/>
    </vehicle>
    <vehicle id="passenger168" type="passenger" depart="8.40">
        <route edges="B4B3 B3B4 B4B5"/>
    </vehicle>
    <vehicle id="passenger169" type="passenger" depart="8.45">
        <route edges="C1B1 B1A1 A1B4 B4B5"/>
    </vehicle>
    <vehicle id="passenger170" type="passenger" depart="8.50">
        <route edges="B1B6 B6B1 B1B2 B2A1"/>
    </vehicle>
    <vehicle id="passenger171" type="passenger" depart="8.55">
        <route edges="C2C3 C3B3 B3A1 A1B6 B6B5"/>
    </vehicle>
    <vehicle id="passenger172" type="passenger" depart="8.60">
        <route edges="B4A1 A1B3 B3C3"/>
    </vehicle>
    <vehicle id="passenger173" type="passenger" depart="8.65">
        <route edges="B4C4 C4C3"/>
    </vehicle>
    <vehicle id="passenger174" type="passenger" depart="8.70">
        <route edges="B3B4 B4A1 A1B6 B6C6"/>
    </vehicle>
    <vehicle id="passenger175" type="passenger" depart="8.75">
        <route edges="B1B6 B6A1"/>
    </vehicle>
    <vehicle id="passenger176" type="passenger" depart="8.80">
        <route edges="C1C2 C2B2 B2B1 B1B6 B6B1"/>
    </vehicle>
    <vehicle id="passenger177" type="passenger" depart="8.85">
        <route edges="C2B2 B2A1 A1B2"/>
    </vehicle>
    <vehicle id="passenger178" type="passenger" depart="8.90">
        <route edges="A1B2 B2B1 B1C1 C1B1"/>
    </vehicle>
    <vehicle id="passenger179" type="passenger" depart="8.95">
        <route edges="C5B5 B5B4 B4B3 B3B2"/>
    </vehicle>
    <vehicle id="passenger180" type="passenger" depart="9.00">
        <route edges="C2B2 B2A1 A1B5"/>
    </vehicle>
    <vehicle id="passenger181" type="passenger" depart="9.05">
        <route edges="B3C3 C3B3 B3B2 B2B1 B1B6"/>
    </vehicle>
    <vehicle id="passenger182" type="passenger" depart="9.10">
        <route edges="B4C4 C4B4 B4B3 B3B4"/>
    </vehicle>
    <vehicle id="passenger183" type="passenger" depart="9.15">
        <route edges="C4C5 C5B5 B5C5"/>
    </vehicle>
    <vehicle id="passenger184" type="passenger" depart="9.20">
        <route edges="B1C1 C1B1 B1A1 A1B6"/>
    </vehicle>
    <vehicle id="passenger185" type="passenger" depart="9.25">
        <route edges="B5B4 B4B3"/>
    </vehicle>
    <vehicle id="passenger186" type="passenger" depart="9.30">
        <route edges="B1C1 C1B1 B1A1 A1B5"/>
    </vehicle>
    <vehicle id="passenger187" type="passenger" depart="9.35">
        <route edges="B3A1 A1B6 B6B5"/>
    </vehicle>
    <vehicle id="passenger188" type="passenger" depart="9.40">
        <route edges="C3C4 C4B4 B4B5 B5C5"/>
    </vehicle>
    <vehicle id="passenger189" type="passenger" depart="9.45">
        <route edges="B4B5 B5B4 B4B3 B3B4"/>
    </vehicle>
    <vehicle id="passenger190" type="passenger" depart="9.50">
        <route edges="B6B1 B1A1 A1B3 B3C3"/>
    </vehicle>
    <vehicle id="passenger191" type="passenger" depart="9.55">
        <route edges="C5B5 B5B4 B4B3"/>
    </vehicle>
    <vehicle id="passenger192" type="passenger" depart="9.60">
        <route edges="A1B2 B2A1 A1B3"/>
    </vehicle>
    <vehicle id="passenger193" type="passenger" depart="9.65">
        <route edges="B6B1 B1A1 A1B3"/>
    </vehicle>
    <vehicle id="passenger194" type="passenger" depart="9.70">
        <route edges="B1B6 B6B5 B5C5"/>
    </vehicle>
    <vehicle id="passenger195" type="passenger" depart="9.75">
        <route edges="C6B6 B6A1 A1B3 B3B4"/>
    </vehicle>
    <vehicle id="passenger196" type="passenger" depart="9.80">
        <route edges="B6B1 B1B2 B2B1"/>
    </vehicle>
    <vehicle id="passenger197" type="passenger" depart="9.85">
        <route edges="C1C2 C2B2 B2A1 A1B6"/>
    </vehicle>
    <vehicle id="passenger198" type="passenger" depart="9.90">
        <route edges="B4B3 B3B4 B4B5 B5C5 C5C4"/>
    </vehicle>
    <vehicle id="passenger199" type="passenger" depart="9.95">
        <route edges="B1B6 B6A1 A1B3 B3C3"/>
    </vehicle>
</routes>
