<?xml version="1.0" encoding="UTF-8"?>
<!-- generated on 2022-08-23 12:58:34.334447 by $Id$
  options: -n map.net.xml -r passenger_routes.rou.xml -o passenger_trips.xml -b 0 -e 10 -p 0.05 <doubleminus>vehicle-class passenger
-->
<routes xmlns:xsi="http://www.w3.org/2001/XMLSchema-instance" xsi:noNamespaceSchemaLocation="http://sumo.dlr.de/xsd/routes_file.xsd">
    <vType id="passenger" vClass="passenger"/>
    <trip id="0" depart="0.00" from="C6C1" to="C2C3" type="passenger"/>
    <trip id="1" depart="0.05" from="B2A1" to="B4C4" type="passenger"/>
    <trip id="2" depart="0.10" from="B4B3" to="A1B4" type="passenger"/>
    <trip id="3" depart="0.15" from="B3B2" to="C2C3" type="passenger"/>
    <trip id="4" depart="0.20" from="C4C3" to="B3C3" type="passenger"/>
    <trip id="5" depart="0.25" from="C6C1" to="C5C6" type="passenger"/>
    <trip id="6" depart="0.30" from="A1B6" to="C1C2" type="passenger"/>
    <trip id="7" depart="0.35" from="B6B1" to="C1C2" type="passenger"/>
    <trip id="8" depart="0.40" from="B3C3" to="C5C6" type="passenger"/>
    <trip id="9" depart="0.45" from="B3B2" to="B4B3" type="passenger"/>
    <trip id="10" depart="0.50" from="C5C6" to="A1B2" type="passenger"/>
    <trip id="11" depart="0.55" from="B3A1" to="C1C2" type="passenger"/>
    <trip id="12" depart="0.60" from="C4B4" to="A1B5" type="passenger"/>
    <trip id="13" depart="0.65" from="B1B6" to="B1A1" type="passenger"/>
    <trip id="14" depart="0.70" from="B1B2" to="B4B5" type="passenger"/>
    <trip id="15" depart="0.75" from="B1A1" to="B1A1" type="passenger"/>
    <trip id="16" depart="0.80" from="B4A1" to="B2C2" type="passenger"/>
    <trip id="17" depart="0.85" from="B1A1" to="A1B6" type="passenger"/>
    <trip id="18" depart="0.90" from="C2C3" to="C1C2" type="passenger"/>
    <trip id="19" depart="0.95" from="B4B5" to="A1B5" type="passenger"/>
    <trip id="20" depart="1.00" from="C3C4" to="A1B1" type="passenger"/>
    <trip id="21" depart="1.05" from="C2C1" to="A1B3" type="passenger"/>
    <trip id="22" depart="1.10" from="C2C1" to="B2B3" type="passenger"/>
    <trip id="23" depart="1.15" from="A1B1" to="B3A1" type="passenger"/>
    <trip id="24" depart="1.20" from="B2A1" to="B4B3" type="passenger"/>
    <trip id="25" depart="1.25" from="C6B6" to="C4C3" type="passenger"/>
    <trip id="26" depart="1.30" from="C2C1" to="C6C5" type="passenger"/>
    <trip id="27" depart="1.35" from="A1B6" to="B4B3" type="passenger"/>
    <trip id="28" depart="1.40" from="C4B4" to="C2C1" type="passenger"/>
    <trip id="29" depart="1.45" from="B6B5" to="C1B1" type="passenger"/>
    <trip id="30" depart="1.50" from="B5A1" to="B3B4" type="passenger"/>
    <trip id="31" depart="1.55" from="B3A1" to="A1B3" type="passenger"/>
    <trip id="32" depart="1.60" from="B5A1" to="B4B3" type="passenger"/>
    <trip id="33" depart="1.65" from="C1C6" to="C2C3" type="passenger"/>
    <trip id="34" depart="1.70" from="C3C2" to="C5C6" type="passenger"/>
    <trip id="35" depart="1.75" from="B5B4" to="B6B1" type="passenger"/>
    <trip id="36" depart="1.80" from="B5A1" to="C1C6" type="passenger"/>
    <trip id="37" depart="1.85" from="C3C4" to="B4A1" type="passenger"/>
    <trip id="38" depart="1.90" from="C2C3" to="B6C6" type="passenger"/>
    <trip id="39" depart="1.95" from="C1B1" to="C1B1" type="passenger"/>
    <trip id="40" depart="2.00" from="C3C4" to="C3B3" type="passenger"/>
    <trip id="41" depart="2.05" from="B2A1" to="A1B5" type="passenger"/>
    <trip id="42" depart="2.10" from="C6C1" to="C1C6" type="passenger"/>
    <trip id="43" depart="2.15" from="A1B2" to="C2B2" type="passenger"/>
    <trip id="44" depart="2.20" from="B6B1" to="C5C6" type="passenger"/>
    <trip id="45" depart="2.25" from="C5C6" to="B1B2" type="passenger"/>
    <trip id="46" depart="2.30" from="A1B1" to="A1B5" type="passenger"/>
    <trip id="47" depart="2.35" from="B5C5" to="C5B5" type="passenger"/>
    <trip id="48" depart="2.40" from="A1B4" to="C2C1" type="passenger"/>
    <trip id="49" depart="2.45" from="C1C6" to="B6A1" type="passenger"/>
    <trip id="50" depart="2.50" from="C2B2" to="A1B1" type="passenger"/>
    <trip id="51" depart="2.55" from="C6B6" to="C4C3" type="passenger"/>
    <trip id="52" depart="2.60" from="C4C3" to="B1B6" type="passenger"/>
    <trip id="53" depart="2.65" from="B6A1" to="C4B4" type="passenger"/>
    <trip id="54" depart="2.70" from="B5B6" to="C4C3" type="passenger"/>
    <trip id="55" depart="2.75" from="A1B5" to="B2B3" type="passenger"/>
    <trip id="56" depart="2.80" from="C2C1" to="B1C1" type="passenger"/>
    <trip id="57" depart="2.85" from="C3B3" to="C1B1" type="passenger"/>
    <trip id="58" depart="2.90" from="C1C2" to="B1C1" type="passenger"/>
    <trip id="59" depart="2.95" from="B6C6" to="B6B1" type="passenger"/>
    <trip id="60" depart="3.00" from="B1B2" to="C2C3" type="passenger"/>
    <trip id="61" depart="3.05" from="B4B3" to="C2C1" type="passenger"/>
    <trip id="62" depart="3.10" from="B3A1" to="A1B3" type="passenger"/>
    <trip id="63" depart="3.15" from="B3C3" to="C3C4" type="passenger"/>
    <trip id="64" depart="3.20" from="A1B6" to="B3B2" type="passenger"/>
    <trip id="65" depart="3.25" from="C5C6" to="B4B3" type="passenger"/>
    <trip id="66" depart="3.30" from="C6B6" to="C2B2" type="passenger"/>
    <trip id="67" depart="3.35" from="B4C4" to="B1A1" type="passenger"/>
    <trip id="68" depart="3.40" from="B2A1" to="C4C5" type="passenger"/>
    <trip id="69" depart="3.45" from="B1C1" to="C5B5" type="passenger"/>
    <trip id="70" depart="3.50" from="A1B3" to="C2C1" type="passenger"/>
    <trip id="71" depart="3.55" from="A1B1" to="B1B2" type="passenger"/>
    <trip id="72" depart="3.60" from="B5A1" to="B4B3" type="passenger"/>
    <trip id="73" depart="3.65" from="B6B1" to="B5B6" type="passenger"/>
    <trip id="74" depart="3.70" from="C6B6" to="C6C5" type="passenger"/>
    <trip id="75" depart="3.75" from="B5A1" to="B4A1" type="passenger"/>
    <trip id="76" depart="3.80" from="C2B2" to="C2C1" type="passenger"/>
    <trip id="77" depart="3.85" from="C2B2" to="B5B6" type="passenger"/>
    <trip id="78" depart="3.90" from="B2B1" to="C5C4" type="passenger"/>
    <trip id="79" depart="3.95" from="B3B2" to="A1B4" type="passenger"/>
    <trip id="80" depart="4.00" from="B5B4" to="B1C1" type="passenger"/>
    <trip id="81" depart="4.05" from="C1C2" to="C2C1" type="passenger"/>
    <trip id="82" depart="4.10" from="B6B5" to="B1A1" type="passenger"/>
    <trip id="83" depart="4.15" from="B2B1" to="B1A1" type="passenger"/>
    <trip id="84" depart="4.20" from="A1B6" to="A1B6" type="passenger"/>
    <trip id="85" depart="4.25" from="B3C3" to="B3A1" type="passenger"/>
    <trip id="86" depart="4.30" from="B5B6" to="C4C3" type="passenger"/>
    <trip id="87" depart="4.35" from="C5C4" to="A1B4" type="passenger"/>
    <trip id="88" depart="4.40" from="B2A1" to="B1C1" type="passenger"/>
    <trip id="89" depart="4.45" from="B6C6" to="B6C6" type="passenger"/>
    <trip id="90" depart="4.50" from="C5C4" to="A1B3" type="passenger"/>
    <trip id="91" depart="4.55" from="B5B4" to="B6B5" type="passenger"/>
    <trip id="92" depart="4.60" from="B5B4" to="B6B5" type="passenger"/>
    <trip id="93" depart="4.65" from="C4C3" to="B3A1" type="passenger"/>
    <trip id="94" depart="4.70" from="B5B4" to="C6C5" type="passenger"/>
    <trip id="95" depart="4.75" from="C5C4" to="B1C1" type="passenger"/>
    <trip id="96" depart="4.80" from="A1B5" to="C6C1" type="passenger"/>
    <trip id="97" depart="4.85" from="B1A1" to="A1B5" type="passenger"/>
    <trip id="98" depart="4.90" from="B3A1" to="C3B3" type="passenger"/>
    <trip id="99" depart="4.95" from="B4A1" to="B4C4" type="passenger"/>
    <trip id="100" depart="5.00" from="C6C1" to="B4A1" type="passenger"/>
    <trip id="101" depart="5.05" from="B2A1" to="C6C1" type="passenger"/>
    <trip id="102" depart="5.10" from="B2B3" to="C5B5" type="passenger"/>
    <trip id="103" depart="5.15" from="C1C6" to="C3C4" type="passenger"/>
    <trip id="104" depart="5.20" from="B4C4" to="C5B5" type="passenger"/>
    <trip id="105" depart="5.25" from="C5C6" to="B3B2" type="passenger"/>
    <trip id="106" depart="5.30" from="A1B2" to="C3B3" type="passenger"/>
    <trip id="107" depart="5.35" from="B6A1" to="B1C1" type="passenger"/>
    <trip id="108" depart="5.40" from="C4B4" to="C2B2" type="passenger"/>
    <trip id="109" depart="5.45" from="C1B1" to="B6B1" type="passenger"/>
    <trip id="110" depart="5.50" from="A1B5" to="A1B5" type="passenger"/>
    <trip id="111" depart="5.55" from="B4B3" to="B1A1" type="passenger"/>
    <trip id="112" depart="5.60" from="C4C3" to="C6B6" type="passenger"/>
    <trip id="113" depart="5.65" from="B3A1" to="B5C5" type="passenger"/>
    <trip id="114" depart="5.70" from="C6C1" to="B4C4" type="passenger"/>
    <trip id="115" depart="5.75" from="B6A1" to="C1B1" type="passenger"/>
    <trip id="116" depart="5.80" from="C1C2" to="C3B3" type="passenger"/>
    <trip id="117" depart="5.85" from="C2C3" to="B2B3" type="passenger"/>
    <trip id="118" depart="5.90" from="B6B1" to="B4B3" type="passenger"/>
    <trip id="119" depart="5.95" from="B1A1" to="B1A1" type="passenger"/>
    <trip id="120" depart="6.00" from="C5C4" to="B2C2" type="passenger"/>
    <trip id="121" depart="6.05" from="B2B1" to="B5B4" type="passenger"/>
    <trip id="122" depart="6.10" from="C1B1" to="B1B6" type="passenger"/>
    <trip id="123" depart="6.15" from="A1B1" to="C2C3" type="passenger"/>
    <trip id="124" depart="6.20" from="C3C2" to="B5C5" type="passenger"/>
    <trip id="125" depart="6.25" from="B5C5" to="B5A1" type="passenger"/>
    <trip id="126" depart="6.30" from="B5B6" to="A1B4" type="passenger"/>
    <trip id="127" depart="6.35" from="C1B1" to="C4B4" type="passenger"/>
    <trip id="128" depart="6.40" from="B5B4" to="C4C5" type="passenger"/>
    <trip id="129" depart="6.45" from="C2C3" to="B1C1" type="passenger"/>
    <trip id="130" depart="6.50" from="C6B6" to="A1B4" type="passenger"/>
    <trip id="131" depart="6.55" from="A1B4" to="B2C2" type="passenger"/>
    <trip id="132" depart="6.60" from="A1B2" to="B5A1" type="passenger"/>
    <trip id="133" depart="6.65" from="C1C6" to="C5B5" type="passenger"/>
    <trip id="134" depart="6.70" from="A1B3" to="C4C5" type="passenger"/>
    <trip id="135" depart="6.75" from="B1B6" to="C6B6" type="passenger"/>
    <trip id="136" depart="6.80" from="C1B1" to="C3C2" type="passenger"/>
    <trip id="137" depart="6.85" from="B3C3" to="B4B5" type="passenger"/>
    <trip id="138" depart="6.90" from="C3C2" to="B3C3" type="passenger"/>
    <trip id="139" depart="6.95" from="B2C2" to="B4C4" type="passenger"/>
    <trip id="140" depart="7.00" from="A1B1" to="C6C5" type="passenger"/>
    <trip id="141" depart="7.05" from="B3B2" to="A1B6" type="passenger"/>
    <trip id="142" depart="7.10" from="C6C1" to="C4B4" type="passenger"/>
    <trip id="143" depart="7.15" from="C6C5" to="C3B3" type="passenger"/>
    <trip id="144" depart="7.20" from="A1B1" to="B2B1" type="passenger"/>
    <trip id="145" depart="7.25" from="C6B6" to="C6C1" type="passenger"/>
    <trip id="146" depart="7.30" from="B5B6" to="B2C2" type="passenger"/>
    <trip id="147" depart="7.35" from="C2C1" to="C3B3" type="passenger"/>
    <trip id="148" depart="7.40" from="B1B6" to="B3B4" type="passenger"/>
    <trip id="149" depart="7.45" from="A1B5" to="C1C2" type="passenger"/>
    <trip id="150" depart="7.50" from="C6C1" to="C2C1" type="passenger"/>
    <trip id="151" depart="7.55" from="B2C2" to="C3C4" type="passenger"/>
    <trip id="152" depart="7.60" from="B2B1" to="B3B2" type="passenger"/>
    <trip id="153" depart="7.65" from="C6B6" to="B5A1" type="passenger"/>
    <trip id="154" depart="7.70" from="B2A1" to="B4C4" type="passenger"/>
    <trip id="155" depart="7.75" from="B5B6" to="B3B2" type="passenger"/>
    <trip id="156" depart="7.80" from="C4C3" to="B5C5" type="passenger"/>
    <trip id="157" depart="7.85" from="B3A1" to="C1B1" type="passenger"/>
    <trip id="158" depart="7.90" from="B1B6" to="A1B1" type="passenger"/>
    <trip id="159" depart="7.95" from="B3A1" to="C6B6" type="passenger"/>
    <trip id="160" depart="8.00" from="C2C3" to="C4C5" type="passenger"/>
    <trip id="161" depart="8.05" from="C1C6" to="C2C3" type="passenger"/>
    <trip id="162" depart="8.10" from="C3C2" to="B2A1" type="passenger"/>
    <trip id="163" depart="8.15" from="A1B4" to="A1B2" type="passenger"/>
    <trip id="164" depart="8.20" from="C5C6" to="B2B1" type="passenger"/>
    <trip id="165" depart="8.25" from="A1B3" to="B1C1" type="passenger"/>
    <trip id="166" depart="8.30" from="B5A1" to="B1B2" type="passenger"/>
    <trip id="167" depart="8.35" from="B5B6" to="B3C3" type="passenger"/>
    <trip id="168" depart="8.40" from="B6C6" to="C3C2" type="passenger"/>
    <trip id="169" depart="8.45" from="C2B2" to="B5B6" type="passenger"/>
    <trip id="170" depart="8.50" from="C2C1" to="B1B2" type="passenger"/>
    <trip id="171" depart="8.55" from="B4C4" to="B4B3" type="passenger"/>
    <trip id="172" depart="8.60" from="A1B5" to="C4C3" type="passenger"/>
    <trip id="173" depart="8.65" from="B1B6" to="C6C5" type="passenger"/>
    <trip id="174" depart="8.70" from="C1C2" to="C5C4" type="passenger"/>
    <trip id="175" depart="8.75" from="B5B4" to="A1B6" type="passenger"/>
    <trip id="176" depart="8.80" from="B2A1" to="B6B1" type="passenger"/>
    <trip id="177" depart="8.85" from="C6C1" to="B4C4" type="passenger"/>
    <trip id="178" depart="8.90" from="B6B1" to="C4B4" type="passenger"/>
    <trip id="179" depart="8.95" from="C1B1" to="C4B4" type="passenger"/>
    <trip id="180" depart="9.00" from="C4B4" to="B5A1" type="passenger"/>
    <trip id="181" depart="9.05" from="C6B6" to="B4B5" type="passenger"/>
    <trip id="182" depart="9.10" from="B2C2" to="B4A1" type="passenger"/>
    <trip id="183" depart="9.15" from="B4B3" to="B6A1" type="passenger"/>
    <trip id="184" depart="9.20" from="C3C4" to="B3C3" type="passenger"/>
    <trip id="185" depart="9.25" from="C6C5" to="B1C1" type="passenger"/>
    <trip id="186" depart="9.30" from="C1C6" to="B4A1" type="passenger"/>
    <trip id="187" depart="9.35" from="A1B1" to="B1B2" type="passenger"/>
    <trip id="188" depart="9.40" from="C6C5" to="C3C2" type="passenger"/>
    <trip id="189" depart="9.45" from="B2B3" to="B4B5" type="passenger"/>
    <trip id="190" depart="9.50" from="B2B3" to="C4C5" type="passenger"/>
    <trip id="191" depart="9.55" from="B6A1" to="C1B1" type="passenger"/>
    <trip id="192" depart="9.60" from="B2B3" to="C6B6" type="passenger"/>
    <trip id="193" depart="9.65" from="C4C3" to="B2C2" type="passenger"/>
    <trip id="194" depart="9.70" from="C2C3" to="C3C4" type="passenger"/>
    <trip id="195" depart="9.75" from="B4A1" to="B2A1" type="passenger"/>
    <trip id="196" depart="9.80" from="B3C3" to="B6B1" type="passenger"/>
    <trip id="197" depart="9.85" from="B4B3" to="C1B1" type="passenger"/>
    <trip id="198" depart="9.90" from="C2B2" to="B1B6" type="passenger"/>
    <trip id="199" depart="9.95" from="B5A1" to="B1A1" type="passenger"/>
</routes>
