<?xml version="1.0" encoding="UTF-8"?>
<!-- generated on 2022-08-22 22:23:59.307628 by $Id$
  options: -n map.net.xml -r passenger_routes.rou.xml -o passenger_trips.xml -b 0 -e 25 -p 0.25 <doubleminus>vehicle-class passenger
-->
<routes xmlns:xsi="http://www.w3.org/2001/XMLSchema-instance" xsi:noNamespaceSchemaLocation="http://sumo.dlr.de/xsd/routes_file.xsd">
    <vType id="passenger" vClass="passenger"/>
    <trip id="0" depart="0.00" from="C2C3" to="A1B3" type="passenger"/>
    <trip id="1" depart="0.25" from="B3B2" to="B4C4" type="passenger"/>
    <trip id="2" depart="0.50" from="A1B5" to="A1B4" type="passenger"/>
    <trip id="3" depart="0.75" from="C3C2" to="B2A1" type="passenger"/>
    <trip id="4" depart="1.00" from="A1B6" to="B6B1" type="passenger"/>
    <trip id="5" depart="1.25" from="C1B1" to="C1C2" type="passenger"/>
    <trip id="6" depart="1.50" from="C4B4" to="A1B3" type="passenger"/>
    <trip id="7" depart="1.75" from="A1B4" to="C3B3" type="passenger"/>
    <trip id="8" depart="2.00" from="C5C4" to="B1C1" type="passenger"/>
    <trip id="9" depart="2.25" from="B6C6" to="C5C6" type="passenger"/>
    <trip id="10" depart="2.50" from="C3B3" to="B2C2" type="passenger"/>
    <trip id="11" depart="2.75" from="C3C2" to="B2B3" type="passenger"/>
    <trip id="12" depart="3.00" from="C6B6" to="C6C1" type="passenger"/>
    <trip id="13" depart="3.25" from="B4A1" to="B6B5" type="passenger"/>
    <trip id="14" depart="3.50" from="C2B2" to="B6B5" type="passenger"/>
    <trip id="15" depart="3.75" from="C3B3" to="B4A1" type="passenger"/>
    <trip id="16" depart="4.00" from="C3B3" to="B1B2" type="passenger"/>
    <trip id="17" depart="4.25" from="A1B6" to="B6A1" type="passenger"/>
    <trip id="18" depart="4.50" from="A1B3" to="B6B1" type="passenger"/>
    <trip id="19" depart="4.75" from="C4C5" to="B6B5" type="passenger"/>
    <trip id="20" depart="5.00" from="C1C2" to="B1C1" type="passenger"/>
    <trip id="21" depart="5.25" from="B4B3" to="B3B4" type="passenger"/>
    <trip id="22" depart="5.50" from="B2B1" to="A1B4" type="passenger"/>
    <trip id="23" depart="5.75" from="B6B1" to="C1C2" type="passenger"/>
    <trip id="24" depart="6.00" from="B1B2" to="C2C3" type="passenger"/>
    <trip id="25" depart="6.25" from="C5B5" to="B5B4" type="passenger"/>
    <trip id="26" depart="6.50" from="B5C5" to="B5C5" type="passenger"/>
    <trip id="27" depart="6.75" from="B1B2" to="C4B4" type="passenger"/>
    <trip id="28" depart="7.00" from="C4C5" to="A1B3" type="passenger"/>
    <trip id="29" depart="7.25" from="A1B6" to="B6B5" type="passenger"/>
    <trip id="30" depart="7.50" from="B3C3" to="B4B3" type="passenger"/>
    <trip id="31" depart="7.75" from="C2C3" to="C3C4" type="passenger"/>
    <trip id="32" depart="8.00" from="B6B1" to="C4C5" type="passenger"/>
    <trip id="33" depart="8.25" from="B4B3" to="A1B1" type="passenger"/>
    <trip id="34" depart="8.50" from="B4B5" to="C3B3" type="passenger"/>
    <trip id="35" depart="8.75" from="B2B3" to="C1C2" type="passenger"/>
    <trip id="36" depart="9.00" from="A1B5" to="C4B4" type="passenger"/>
    <trip id="37" depart="9.25" from="B3B2" to="B5A1" type="passenger"/>
    <trip id="38" depart="9.50" from="C3C4" to="B5B6" type="passenger"/>
    <trip id="39" depart="9.75" from="C4C3" to="C2B2" type="passenger"/>
    <trip id="40" depart="10.00" from="A1B1" to="C2C1" type="passenger"/>
    <trip id="41" depart="10.25" from="B1A1" to="B4A1" type="passenger"/>
    <trip id="42" depart="10.50" from="B4C4" to="A1B2" type="passenger"/>
    <trip id="43" depart="10.75" from="C5C4" to="A1B1" type="passenger"/>
    <trip id="44" depart="11.00" from="B5C5" to="C3C4" type="passenger"/>
    <trip id="45" depart="11.25" from="A1B2" to="A1B5" type="passenger"/>
    <trip id="46" depart="11.50" from="C2B2" to="A1B6" type="passenger"/>
    <trip id="47" depart="11.75" from="C3C4" to="A1B3" type="passenger"/>
    <trip id="48" depart="12.00" from="A1B3" to="B6B1" type="passenger"/>
    <trip id="49" depart="12.25" from="B3B4" to="C3C2" type="passenger"/>
    <trip id="50" depart="12.50" from="C2C3" to="B3B4" type="passenger"/>
    <trip id="51" depart="12.75" from="C1B1" to="A1B2" type="passenger"/>
    <trip id="52" depart="13.00" from="B6A1" to="C3C4" type="passenger"/>
    <trip id="53" depart="13.25" from="C2C3" to="C2C3" type="passenger"/>
    <trip id="54" depart="13.50" from="C3B3" to="C1C2" type="passenger"/>
    <trip id="55" depart="13.75" from="C3B3" to="A1B4" type="passenger"/>
    <trip id="56" depart="14.00" from="A1B1" to="B6B5" type="passenger"/>
    <trip id="57" depart="14.25" from="B2C2" to="A1B6" type="passenger"/>
    <trip id="58" depart="14.50" from="B3A1" to="A1B1" type="passenger"/>
    <trip id="59" depart="14.75" from="B1B2" to="B6B5" type="passenger"/>
    <trip id="60" depart="15.00" from="C3B3" to="C2C3" type="passenger"/>
    <trip id="61" depart="15.25" from="C6C5" to="C3C4" type="passenger"/>
    <trip id="62" depart="15.50" from="C3B3" to="B1C1" type="passenger"/>
    <trip id="63" depart="15.75" from="B3C3" to="B6B1" type="passenger"/>
    <trip id="64" depart="16.00" from="C4C3" to="C3C4" type="passenger"/>
    <trip id="65" depart="16.25" from="C2B2" to="C6C1" type="passenger"/>
    <trip id="66" depart="16.50" from="C4C3" to="B3A1" type="passenger"/>
    <trip id="67" depart="16.75" from="C2C1" to="C2B2" type="passenger"/>
    <trip id="68" depart="17.00" from="A1B4" to="C1C6" type="passenger"/>
    <trip id="69" depart="17.25" from="C6C1" to="B5A1" type="passenger"/>
    <trip id="70" depart="17.50" from="B6B5" to="C4C3" type="passenger"/>
    <trip id="71" depart="17.75" from="C5C4" to="B1C1" type="passenger"/>
    <trip id="72" depart="18.00" from="B4B3" to="B3B4" type="passenger"/>
    <trip id="73" depart="18.25" from="C4B4" to="B1B2" type="passenger"/>
    <trip id="74" depart="18.50" from="B1B2" to="B4B5" type="passenger"/>
    <trip id="75" depart="18.75" from="B4B3" to="B6B1" type="passenger"/>
    <trip id="76" depart="19.00" from="B3A1" to="B4A1" type="passenger"/>
    <trip id="77" depart="19.25" from="C5C6" to="C5B5" type="passenger"/>
    <trip id="78" depart="19.50" from="C2C1" to="C5C6" type="passenger"/>
    <trip id="79" depart="19.75" from="A1B6" to="A1B3" type="passenger"/>
    <trip id="80" depart="20.00" from="A1B5" to="B6A1" type="passenger"/>
    <trip id="81" depart="20.25" from="B6C6" to="B6B1" type="passenger"/>
    <trip id="82" depart="20.50" from="B3C3" to="C2B2" type="passenger"/>
    <trip id="83" depart="20.75" from="B4B3" to="C3C4" type="passenger"/>
    <trip id="84" depart="21.00" from="C1C6" to="C6C5" type="passenger"/>
    <trip id="85" depart="21.25" from="C5B5" to="B1B2" type="passenger"/>
    <trip id="86" depart="21.50" from="B4B5" to="B5B4" type="passenger"/>
    <trip id="87" depart="21.75" from="B6A1" to="C3B3" type="passenger"/>
    <trip id="88" depart="22.00" from="C5C4" to="A1B1" type="passenger"/>
    <trip id="89" depart="22.25" from="B6B5" to="C1C2" type="passenger"/>
    <trip id="90" depart="22.50" from="C1C2" to="B2B1" type="passenger"/>
    <trip id="91" depart="22.75" from="C3B3" to="C3B3" type="passenger"/>
    <trip id="92" depart="23.00" from="C3B3" to="B6C6" type="passenger"/>
    <trip id="93" depart="23.25" from="B2B1" to="B4C4" type="passenger"/>
    <trip id="94" depart="23.50" from="B1B6" to="B5C5" type="passenger"/>
    <trip id="95" depart="23.75" from="B5B4" to="B3B4" type="passenger"/>
    <trip id="96" depart="24.00" from="C4B4" to="C4B4" type="passenger"/>
    <trip id="97" depart="24.25" from="C1B1" to="B4B3" type="passenger"/>
    <trip id="98" depart="24.50" from="B4C4" to="B5C5" type="passenger"/>
    <trip id="99" depart="24.75" from="B1B2" to="C6C5" type="passenger"/>
</routes>
