<?xml version="1.0" encoding="UTF-8"?>

<!-- generated on Mon Aug 22 22:23:59 2022 by Eclipse SUMO duarouter Version 1.1.0
<configuration xmlns:xsi="http://www.w3.org/2001/XMLSchema-instance" xsi:noNamespaceSchemaLocation="http://sumo.dlr.de/xsd/duarouterConfiguration.xsd">

    <input>
        <net-file value="map.net.xml"/>
        <route-files value="passenger_trips.xml"/>
    </input>

    <output>
        <output-file value="passenger_routes.rou.xml"/>
        <alternatives-output value="passenger_routes.rou.alt.xml"/>
    </output>

    <time>
        <begin value="0.0"/>
        <end value="25.0"/>
    </time>

    <report>
        <no-warnings value="true"/>
        <ignore-errors value="true"/>
        <no-step-log value="true"/>
    </report>

</configuration>
-->

<routes xmlns:xsi="http://www.w3.org/2001/XMLSchema-instance" xsi:noNamespaceSchemaLocation="http://sumo.dlr.de/xsd/routes_file.xsd">
    <vType id="passenger" vClass="passenger"/>
    <vehicle id="passenger0" type="passenger" depart="0.00">
        <route edges="C2C3 C3B3 B3A1 A1B3"/>
    </vehicle>
    <vehicle id="passenger1" type="passenger" depart="0.25">
        <route edges="B3B2 B2B3 B3B4 B4C4"/>
    </vehicle>
    <vehicle id="passenger2" type="passenger" depart="0.50">
        <route edges="A1B5 B5A1 A1B4"/>
    </vehicle>
    <vehicle id="passenger3" type="passenger" depart="0.75">
        <route edges="C3C2 C2B2 B2A1"/>
    </vehicle>
    <vehicle id="passenger4" type="passenger" depart="1.00">
        <route edges="A1B6 B6B1"/>
    </vehicle>
    <vehicle id="passenger5" type="passenger" depart="1.25">
        <route edges="C1B1 B1C1 C1C2"/>
    </vehicle>
    <vehicle id="passenger6" type="passenger" depart="1.50">
        <route edges="C4B4 B4A1 A1B3"/>
    </vehicle>
    <vehicle id="passenger7" type="passenger" depart="1.75">
        <route edges="A1B4 B4B3 B3C3 C3B3"/>
    </vehicle>
    <vehicle id="passenger8" type="passenger" depart="2.00">
        <route edges="C5C4 C4B4 B4A1 A1B1 B1C1"/>
    </vehicle>
    <vehicle id="passenger9" type="passenger" depart="2.25">
        <route edges="B6C6 C6C5 C5C6"/>
    </vehicle>
    <vehicle id="passenger10" type="passenger" depart="2.50">
        <route edges="C3B3 B3B2 B2C2"/>
    </vehicle>
    <vehicle id="passenger11" type="passenger" depart="2.75">
        <route edges="C3C2 C2B2 B2B3"/>
    </vehicle>
    <vehicle id="passenger12" type="passenger" depart="3.00">
        <route edges="C6B6 B6C6 C6C1"/>
    </vehicle>
    <vehicle id="passenger13" type="passenger" depart="3.25">
        <route edges="B4A1 A1B6 B6B5"/>
    </vehicle>
    <vehicle id="passenger14" type="passenger" depart="3.50">
        <route edges="C2B2 B2B1 B1B6 B6B5"/>
    </vehicle>
    <vehicle id="passenger15" type="passenger" depart="3.75">
        <route edges="C3B3 B3B4 B4A1"/>
    </vehicle>
    <vehicle id="passenger16" type="passenger" depart="4.00">
        <route edges="C3B3 B3B2 B2B1 B1B2"/>
    </vehicle>
    <vehicle id="passenger17" type="passenger" depart="4.25">
        <route edges="A1B6 B6A1"/>
    </vehicle>
    <vehicle id="passenger18" type="passenger" depart="4.50">
        <route edges="A1B3 B3A1 A1B6 B6B1"/>
    </vehicle>
    <vehicle id="passenger19" type="passenger" depart="4.75">
        <route edges="C4C5 C5B5 B5B6 B6B5"/>
    </vehicle>
    <vehicle id="passenger20" type="passenger" depart="5.00">
        <route edges="C1C2 C2B2 B2B1 B1C1"/>
    </vehicle>
    <vehicle id="passenger21" type="passenger" depart="5.25">
        <route edges="B4B3 B3B4"/>
    </vehicle>
    <vehicle id="passenger22" type="passenger" depart="5.50">
        <route edges="B2B1 B1A1 A1B4"/>
    </vehicle>
    <vehicle id="passenger23" type="passenger" depart="5.75">
        <route edges="B6B1 B1C1 C1C2"/>
    </vehicle>
    <vehicle id="passenger24" type="passenger" depart="6.00">
        <route edges="B1B2 B2C2 C2C3"/>
    </vehicle>
    <vehicle id="passenger25" type="passenger" depart="6.25">
        <route edges="C5B5 B5B4"/>
    </vehicle>
    <vehicle id="passenger26" type="passenger" depart="6.50">
        <route edges="B5C5"/>
    </vehicle>
    <vehicle id="passenger27" type="passenger" depart="6.75">
        <route edges="B1B2 B2A1 A1B4 B4C4 C4B4"/>
    </vehicle>
    <vehicle id="passenger28" type="passenger" depart="7.00">
        <route edges="C4C5 C5B5 B5A1 A1B3"/>
    </vehicle>
    <vehicle id="passenger29" type="passenger" depart="7.25">
        <route edges="A1B6 B6B5"/>
    </vehicle>
    <vehicle id="passenger30" type="passenger" depart="7.50">
        <route edges="B3C3 C3B3 B3B4 B4B3"/>
    </vehicle>
    <vehicle id="passenger31" type="passenger" depart="7.75">
        <route edges="C2C3 C3C4"/>
    </vehicle>
    <vehicle id="passenger32" type="passenger" depart="8.00">
        <route edges="B6B1 B1A1 A1B4 B4C4 C4C5"/>
    </vehicle>
    <vehicle id="passenger33" type="passenger" depart="8.25">
        <route edges="B4B3 B3A1 A1B1"/>
    </vehicle>
    <vehicle id="passenger34" type="passenger" depart="8.50">
        <route edges="B4B5 B5B4 B4B3 B3C3 C3B3"/>
    </vehicle>
    <vehicle id="passenger35" type="passenger" depart="8.75">
        <route edges="B2B3 B3B2 B2B1 B1C1 C1C2"/>
    </vehicle>
    <vehicle id="passenger36" type="passenger" depart="9.00">
        <route edges="A1B5 B5B4 B4C4 C4B4"/>
    </vehicle>
    <vehicle id="passenger37" type="passenger" depart="9.25">
        <route edges="B3B2 B2A1 A1B5 B5A1"/>
    </vehicle>
    <vehicle id="passenger38" type="passenger" depart="9.50">
        <route edges="C3C4 C4B4 B4B5 B5B6"/>
    </vehicle>
    <vehicle id="passenger39" type="passenger" depart="9.75">
        <route edges="C4C3 C3C2 C2B2"/>
    </vehicle>
    <vehicle id="passenger40" type="passenger" depart="10.00">
        <route edges="A1B1 B1B2 B2C2 C2C1"/>
    </vehicle>
    <vehicle id="passenger41" type="passenger" depart="10.25">
        <route edges="B1A1 A1B4 B4A1"/>
    </vehicle>
    <vehicle id="passenger42" type="passenger" depart="10.50">
        <route edges="B4C4 C4B4 B4A1 A1B2"/>
    </vehicle>
    <vehicle id="passenger43" type="passenger" depart="10.75">
        <route edges="C5C4 C4B4 B4A1 A1B1"/>
    </vehicle>
    <vehicle id="passenger44" type="passenger" depart="11.00">
        <route edges="B5C5 C5B5 B5B4 B4B3 B3C3 C3C4"/>
    </vehicle>
    <vehicle id="passenger45" type="passenger" depart="11.25">
        <route edges="A1B2 B2A1 A1B5"/>
    </vehicle>
    <vehicle id="passenger46" type="passenger" depart="11.50">
        <route edges="C2B2 B2A1 A1B6"/>
    </vehicle>
    <vehicle id="passenger47" type="passenger" depart="11.75">
        <route edges="C3C4 C4B4 B4A1 A1B3"/>
    </vehicle>
    <vehicle id="passenger48" type="passenger" depart="12.00">
        <route edges="A1B3 B3A1 A1B6 B6B1"/>
    </vehicle>
    <vehicle id="passenger49" type="passenger" depart="12.25">
        <route edges="B3B4 B4B3 B3C3 C3C2"/>
    </vehicle>
    <vehicle id="passenger50" type="passenger" depart="12.50">
        <route edges="C2C3 C3B3 B3B4"/>
    </vehicle>
    <vehicle id="passenger51" type="passenger" depart="12.75">
        <route edges="C1B1 B1A1 A1B2"/>
    </vehicle>
    <vehicle id="passenger52" type="passenger" depart="13.00">
        <route edges="B6A1 A1B3 B3C3 C3C4"/>
    </vehicle>
    <vehicle id="passenger53" type="passenger" depart="13.25">
        <route edges="C2C3"/>
    </vehicle>
    <vehicle id="passenger54" type="passenger" depart="13.50">
        <route edges="C3B3 B3B2 B2B1 B1C1 C1C2"/>
    </vehicle>
    <vehicle id="passenger55" type="passenger" depart="13.75">
        <route edges="C3B3 B3A1 A1B4"/>
    </vehicle>
    <vehicle id="passenger56" type="passenger" depart="14.00">
        <route edges="A1B1 B1B6 B6B5"/>
    </vehicle>
    <vehicle id="passenger57" type="passenger" depart="14.25">
        <route edges="B2C2 C2B2 B2A1 A1B6"/>
    </vehicle>
    <vehicle id="passenger58" type="passenger" depart="14.50">
        <route edges="B3A1 A1B1"/>
    </vehicle>
    <vehicle id="passenger59" type="passenger" depart="14.75">
        <route edges="B1B2 B2B1 B1B6 B6B5"/>
    </vehicle>
    <vehicle id="passenger60" type="passenger" depart="15.00">
        <route edges="C3B3 B3B2 B2C2 C2C3"/>
    </vehicle>
    <vehicle id="passenger61" type="passenger" depart="15.25">
        <route edges="C6C5 C5B5 B5B4 B4B3 B3C3 C3C4"/>
    </vehicle>
    <vehicle id="passenger62" type="passenger" depart="15.50">
        <route edges="C3B3 B3B2 B2B1 B1C1"/>
    </vehicle>
    <vehicle id="passenger63" type="passenger" depart="15.75">
        <route edges="B3C3 C3B3 B3A1 A1B6 B6B1"/>
    </vehicle>
    <vehicle id="passenger64" type="passenger" depart="16.00">
        <route edges="C4C3 C3C4"/>
    </vehicle>
    <vehicle id="passenger65" type="passenger" depart="16.25">
        <route edges="C2B2 B2B1 B1B6 B6C6 C6C1"/>
    </vehicle>
    <vehicle id="passenger66" type="passenger" depart="16.50">
        <route edges="C4C3 C3B3 B3A1"/>
    </vehicle>
    <vehicle id="passenger67" type="passenger" depart="16.75">
        <route edges="C2C1 C1C2 C2B2"/>
    </vehicle>
    <vehicle id="passenger68" type="passenger" depart="17.00">
        <route edges="A1B4 B4A1 A1B1 B1C1 C1C6"/>
    </vehicle>
    <vehicle id="passenger69" type="passenger" depart="17.25">
        <route edges="C6C1 C1B1 B1A1 A1B5 B5A1"/>
    </vehicle>
    <vehicle id="passenger70" type="passenger" depart="17.50">
        <route edges="B6B5 B5B4 B4C4 C4C3"/>
    </vehicle>
    <vehicle id="passenger71" type="passenger" depart="17.75">
        <route edges="C5C4 C4B4 B4A1 A1B1 B1C1"/>
    </vehicle>
    <vehicle id="passenger72" type="passenger" depart="18.00">
        <route edges="B4B3 B3B4"/>
    </vehicle>
    <vehicle id="passenger73" type="passenger" depart="18.25">
        <route edges="C4B4 B4A1 A1B1 B1B2"/>
    </vehicle>
    <vehicle id="passenger74" type="passenger" depart="18.50">
        <route edges="B1B2 B2A1 A1B4 B4B5"/>
    </vehicle>
    <vehicle id="passenger75" type="passenger" depart="18.75">
        <route edges="B4B3 B3A1 A1B6 B6B1"/>
    </vehicle>
    <vehicle id="passenger76" type="passenger" depart="19.00">
        <route edges="B3A1 A1B4 B4A1"/>
    </vehicle>
    <vehicle id="passenger77" type="passenger" depart="19.25">
        <route edges="C5C6 C6C5 C5B5"/>
    </vehicle>
    <vehicle id="passenger78" type="passenger" depart="19.50">
        <route edges="C2C1 C1B1 B1A1 A1B5 B5C5 C5C6"/>
    </vehicle>
    <vehicle id="passenger79" type="passenger" depart="19.75">
        <route edges="A1B6 B6A1 A1B3"/>
    </vehicle>
    <vehicle id="passenger80" type="passenger" depart="20.00">
        <route edges="A1B5 B5B6 B6A1"/>
    </vehicle>
    <vehicle id="passenger81" type="passenger" depart="20.25">
        <route edges="B6C6 C6B6 B6B1"/>
    </vehicle>
    <vehicle id="passenger82" type="passenger" depart="20.50">
        <route edges="B3C3 C3C2 C2B2"/>
    </vehicle>
    <vehicle id="passenger83" type="passenger" depart="20.75">
        <route edges="B4B3 B3C3 C3C4"/>
    </vehicle>
    <vehicle id="passenger84" type="passenger" depart="21.00">
        <route edges="C1C6 C6C5"/>
    </vehicle>
    <vehicle id="passenger85" type="passenger" depart="21.25">
        <route edges="C5B5 B5A1 A1B1 B1B2"/>
    </vehicle>
    <vehicle id="passenger86" type="passenger" depart="21.50">
        <route edges="B4B5 B5B4"/>
    </vehicle>
    <vehicle id="passenger87" type="passenger" depart="21.75">
        <route edges="B6A1 A1B3 B3C3 C3B3"/>
    </vehicle>
    <vehicle id="passenger88" type="passenger" depart="22.00">
        <route edges="C5C4 C4B4 B4A1 A1B1"/>
    </vehicle>
    <vehicle id="passenger89" type="passenger" depart="22.25">
        <route edges="B6B5 B5B6 B6B1 B1C1 C1C2"/>
    </vehicle>
    <vehicle id="passenger90" type="passenger" depart="22.50">
        <route edges="C1C2 C2B2 B2B1"/>
    </vehicle>
    <vehicle id="passenger91" type="passenger" depart="22.75">
        <route edges="C3B3"/>
    </vehicle>
    <vehicle id="passenger92" type="passenger" depart="23.00">
        <route edges="C3B3 B3A1 A1B6 B6C6"/>
    </vehicle>
    <vehicle id="passenger93" type="passenger" depart="23.25">
        <route edges="B2B1 B1A1 A1B4 B4C4"/>
    </vehicle>
    <vehicle id="passenger94" type="passenger" depart="23.50">
        <route edges="B1B6 B6B5 B5C5"/>
    </vehicle>
    <vehicle id="passenger95" type="passenger" depart="23.75">
        <route edges="B5B4 B4B3 B3B4"/>
    </vehicle>
    <vehicle id="passenger96" type="passenger" depart="24.00">
        <route edges="C4B4"/>
    </vehicle>
    <vehicle id="passenger97" type="passenger" depart="24.25">
        <route edges="C1B1 B1A1 A1B4 B4B3"/>
    </vehicle>
    <vehicle id="passenger98" type="passenger" depart="24.50">
        <route edges="B4C4 C4B4 B4B5 B5C5"/>
    </vehicle>
    <vehicle id="passenger99" type="passenger" depart="24.75">
        <route edges="B1B2 B2B1 B1B6 B6C6 C6C5"/>
    </vehicle>
</routes>
