<?xml version="1.0" encoding="UTF-8"?>

<!-- generated on Tue 03 Jan 2023 03:58:54 PM -03 by Eclipse SUMO netedit Version 1.1.0
<configuration xmlns:xsi="http://www.w3.org/2001/XMLSchema-instance" xsi:noNamespaceSchemaLocation="http://sumo.dlr.de/xsd/netconvertConfiguration.xsd">

    <input>
        <sumo-net-file value="net.net.xml"/>
    </input>

    <output>
        <output-file value="net.net.xml"/>
    </output>

    <processing>
        <geometry.max-grade.fix value="false"/>
        <offset.disable-normalization value="true"/>
        <lefthand value="false"/>
    </processing>

    <junctions>
        <no-turnarounds value="true"/>
        <junctions.corner-detail value="5"/>
        <junctions.limit-turn-speed value="5.5"/>
        <rectangular-lane-cut value="false"/>
    </junctions>

    <pedestrian>
        <walkingareas value="false"/>
    </pedestrian>

    <visualisation>
        <registry-viewport value="true"/>
    </visualisation>

</configuration>
-->

<net version="1.1" junctionCornerDetail="5" limitTurnSpeed="5.50" xmlns:xsi="http://www.w3.org/2001/XMLSchema-instance" xsi:noNamespaceSchemaLocation="http://sumo.dlr.de/xsd/net_file.xsd">

    <location netOffset="0.00,0.00" convBoundary="0.00,0.00,2485.41,0.27" origBoundary="0.00,0.00,400.00,400.00" projParameter="!"/>

    <edge id=":A0_0" function="internal">
        <lane id=":A0_0_0" index="0" speed="3.65" length="4.67" shape="0.00,1.60 -1.20,0.80 -1.60,0.00 -1.20,-0.80 0.00,-1.60"/>
    </edge>
    <edge id=":B0_0" function="internal">
        <lane id=":B0_0_0" index="0" speed="13.89" length="0.10" shape="100.00,1.60 100.00,1.60"/>
    </edge>
    <edge id=":B0_1" function="internal">
        <lane id=":B0_1_0" index="0" speed="3.65" length="2.34" shape="100.00,1.60 98.80,0.80 98.40,0.00"/>
    </edge>
    <edge id=":B0_4" function="internal">
        <lane id=":B0_4_0" index="0" speed="3.65" length="2.34" shape="98.40,0.00 98.80,-0.80 100.00,-1.60"/>
    </edge>
    <edge id=":B0_2" function="internal">
        <lane id=":B0_2_0" index="0" speed="13.89" length="0.10" shape="100.00,-1.60 100.00,-1.60"/>
    </edge>
    <edge id=":B0_3" function="internal">
        <lane id=":B0_3_0" index="0" speed="3.65" length="2.34" shape="100.00,-1.60 101.20,-0.80 101.60,0.00"/>
    </edge>
    <edge id=":B0_5" function="internal">
        <lane id=":B0_5_0" index="0" speed="3.65" length="2.34" shape="101.60,0.00 101.20,0.80 100.00,1.60"/>
    </edge>
    <edge id=":C0_0" function="internal">
        <lane id=":C0_0_0" index="0" speed="13.89" length="0.10" shape="200.00,1.60 200.00,1.60"/>
    </edge>
    <edge id=":C0_1" function="internal">
        <lane id=":C0_1_0" index="0" speed="3.65" length="2.34" shape="200.00,1.60 198.80,0.80 198.40,0.00"/>
    </edge>
    <edge id=":C0_4" function="internal">
        <lane id=":C0_4_0" index="0" speed="3.65" length="2.34" shape="198.40,0.00 198.80,-0.80 200.00,-1.60"/>
    </edge>
    <edge id=":C0_2" function="internal">
        <lane id=":C0_2_0" index="0" speed="13.89" length="0.10" shape="200.00,-1.60 200.00,-1.60"/>
    </edge>
    <edge id=":C0_3" function="internal">
        <lane id=":C0_3_0" index="0" speed="3.65" length="2.34" shape="200.00,-1.60 201.20,-0.80 201.60,0.00"/>
    </edge>
    <edge id=":C0_5" function="internal">
        <lane id=":C0_5_0" index="0" speed="3.65" length="2.34" shape="201.60,0.00 201.20,0.80 200.00,1.60"/>
    </edge>
    <edge id=":D0_0" function="internal">
        <lane id=":D0_0_0" index="0" speed="13.89" length="0.10" shape="300.00,1.60 300.00,1.60"/>
    </edge>
    <edge id=":D0_1" function="internal">
        <lane id=":D0_1_0" index="0" speed="3.65" length="2.34" shape="300.00,1.60 298.80,0.80 298.40,-0.00"/>
    </edge>
    <edge id=":D0_4" function="internal">
        <lane id=":D0_4_0" index="0" speed="3.65" length="2.34" shape="298.40,-0.00 298.80,-0.80 300.00,-1.60"/>
    </edge>
    <edge id=":D0_2" function="internal">
        <lane id=":D0_2_0" index="0" speed="13.89" length="0.10" shape="300.00,-1.60 300.00,-1.60"/>
    </edge>
    <edge id=":D0_3" function="internal">
        <lane id=":D0_3_0" index="0" speed="3.65" length="2.34" shape="300.00,-1.60 301.20,-0.80 301.60,0.00"/>
    </edge>
    <edge id=":D0_5" function="internal">
        <lane id=":D0_5_0" index="0" speed="3.65" length="2.34" shape="301.60,0.00 301.20,0.80 300.00,1.60"/>
    </edge>
    <edge id=":E0_0" function="internal">
        <lane id=":E0_0_0" index="0" speed="3.65" length="4.67" shape="2485.41,-1.33 2486.61,-0.53 2487.01,0.27 2486.61,1.07 2485.41,1.87"/>
    </edge>

    <edge id="A0B0" from="A0" to="B0" priority="-1">
        <lane id="A0B0_0" index="0" speed="13.89" length="100.00" shape="0.00,-1.60 100.00,-1.60"/>
    </edge>
    <edge id="B0A0" from="B0" to="A0" priority="-1">
        <lane id="B0A0_0" index="0" speed="13.89" length="100.00" shape="100.00,1.60 0.00,1.60"/>
    </edge>
    <edge id="B0C0" from="B0" to="C0" priority="-1">
        <lane id="B0C0_0" index="0" speed="13.89" length="100.00" shape="100.00,-1.60 200.00,-1.60"/>
    </edge>
    <edge id="C0B0" from="C0" to="B0" priority="-1">
        <lane id="C0B0_0" index="0" speed="13.89" length="100.00" shape="200.00,1.60 100.00,1.60"/>
    </edge>
    <edge id="C0D0" from="C0" to="D0" priority="-1">
        <lane id="C0D0_0" index="0" speed="13.89" length="100.00" shape="200.00,-1.60 300.00,-1.60"/>
    </edge>
    <edge id="D0C0" from="D0" to="C0" priority="-1">
        <lane id="D0C0_0" index="0" speed="13.89" length="100.00" shape="300.00,1.60 200.00,1.60"/>
    </edge>
    <edge id="D0E0" from="D0" to="E0" priority="-1">
        <lane id="D0E0_0" index="0" speed="13.89" length="2185.41" shape="300.00,-1.60 2485.41,-1.33"/>
    </edge>
    <edge id="E0D0" from="E0" to="D0" priority="-1">
        <lane id="E0D0_0" index="0" speed="13.89" length="2185.41" shape="2485.41,1.87 300.00,1.60"/>
    </edge>

    <junction id="A0" type="priority" x="0.00" y="0.00" incLanes="B0A0_0" intLanes=":A0_0_0" shape="0.00,0.00 0.00,3.20 0.00,0.00">
        <request index="0" response="0" foes="0" cont="0"/>
    </junction>
    <junction id="B0" type="priority" x="100.00" y="0.00" incLanes="C0B0_0 A0B0_0" intLanes=":B0_0_0 :B0_4_0 :B0_2_0 :B0_5_0" shape="100.00,3.20 100.00,-3.20 100.00,3.20">
        <request index="0" response="0000" foes="1000" cont="0"/>
        <request index="1" response="0100" foes="0100" cont="1"/>
        <request index="2" response="0000" foes="0010" cont="0"/>
        <request index="3" response="0001" foes="0001" cont="1"/>
    </junction>
    <junction id="C0" type="priority" x="200.00" y="0.00" incLanes="D0C0_0 B0C0_0" intLanes=":C0_0_0 :C0_4_0 :C0_2_0 :C0_5_0" shape="200.00,3.20 200.00,-3.20 200.00,3.20">
        <request index="0" response="0000" foes="1000" cont="0"/>
        <request index="1" response="0100" foes="0100" cont="1"/>
        <request index="2" response="0000" foes="0010" cont="0"/>
        <request index="3" response="0001" foes="0001" cont="1"/>
    </junction>
    <junction id="D0" type="priority" x="300.00" y="0.00" incLanes="E0D0_0 C0D0_0" intLanes=":D0_0_0 :D0_4_0 :D0_2_0 :D0_5_0" shape="300.00,3.20 300.00,-3.20 300.00,3.20">
        <request index="0" response="0000" foes="1000" cont="0"/>
        <request index="1" response="0100" foes="0100" cont="1"/>
        <request index="2" response="0000" foes="0010" cont="0"/>
        <request index="3" response="0001" foes="0001" cont="1"/>
    </junction>
    <junction id="E0" type="priority" x="2485.41" y="0.27" incLanes="D0E0_0" intLanes=":E0_0_0" shape="2485.41,0.27 2485.41,-2.93 2485.41,0.27">
        <request index="0" response="0" foes="0" cont="0"/>
    </junction>

    <junction id=":B0_4_0" type="internal" x="98.40" y="0.00" incLanes=":B0_1_0 A0B0_0" intLanes=":B0_2_0"/>
    <junction id=":B0_5_0" type="internal" x="101.60" y="0.00" incLanes=":B0_3_0 C0B0_0" intLanes=":B0_0_0"/>
    <junction id=":C0_4_0" type="internal" x="198.40" y="0.00" incLanes=":C0_1_0 B0C0_0" intLanes=":C0_2_0"/>
    <junction id=":C0_5_0" type="internal" x="201.60" y="0.00" incLanes=":C0_3_0 D0C0_0" intLanes=":C0_0_0"/>
    <junction id=":D0_4_0" type="internal" x="298.40" y="-0.00" incLanes=":D0_1_0 C0D0_0" intLanes=":D0_2_0"/>
    <junction id=":D0_5_0" type="internal" x="301.60" y="0.00" incLanes=":D0_3_0 E0D0_0" intLanes=":D0_0_0"/>

    <connection from="A0B0" to="B0C0" fromLane="0" toLane="0" via=":B0_2_0" dir="s" state="M"/>
    <connection from="A0B0" to="B0A0" fromLane="0" toLane="0" via=":B0_3_0" dir="t" state="m"/>
    <connection from="B0A0" to="A0B0" fromLane="0" toLane="0" via=":A0_0_0" dir="t" state="M"/>
    <connection from="B0C0" to="C0D0" fromLane="0" toLane="0" via=":C0_2_0" dir="s" state="M"/>
    <connection from="B0C0" to="C0B0" fromLane="0" toLane="0" via=":C0_3_0" dir="t" state="m"/>
    <connection from="C0B0" to="B0A0" fromLane="0" toLane="0" via=":B0_0_0" dir="s" state="M"/>
    <connection from="C0B0" to="B0C0" fromLane="0" toLane="0" via=":B0_1_0" dir="t" state="m"/>
    <connection from="C0D0" to="D0E0" fromLane="0" toLane="0" via=":D0_2_0" dir="s" state="M"/>
    <connection from="C0D0" to="D0C0" fromLane="0" toLane="0" via=":D0_3_0" dir="t" state="m"/>
    <connection from="D0C0" to="C0B0" fromLane="0" toLane="0" via=":C0_0_0" dir="s" state="M"/>
    <connection from="D0C0" to="C0D0" fromLane="0" toLane="0" via=":C0_1_0" dir="t" state="m"/>
    <connection from="D0E0" to="E0D0" fromLane="0" toLane="0" via=":E0_0_0" dir="t" state="M"/>
    <connection from="E0D0" to="D0C0" fromLane="0" toLane="0" via=":D0_0_0" dir="s" state="M"/>
    <connection from="E0D0" to="D0E0" fromLane="0" toLane="0" via=":D0_1_0" dir="t" state="m"/>

    <connection from=":A0_0" to="A0B0" fromLane="0" toLane="0" dir="t" state="M"/>
    <connection from=":B0_0" to="B0A0" fromLane="0" toLane="0" dir="s" state="M"/>
    <connection from=":B0_1" to="B0C0" fromLane="0" toLane="0" via=":B0_4_0" dir="t" state="m"/>
    <connection from=":B0_4" to="B0C0" fromLane="0" toLane="0" dir="t" state="M"/>
    <connection from=":B0_2" to="B0C0" fromLane="0" toLane="0" dir="s" state="M"/>
    <connection from=":B0_3" to="B0A0" fromLane="0" toLane="0" via=":B0_5_0" dir="t" state="m"/>
    <connection from=":B0_5" to="B0A0" fromLane="0" toLane="0" dir="t" state="M"/>
    <connection from=":C0_0" to="C0B0" fromLane="0" toLane="0" dir="s" state="M"/>
    <connection from=":C0_1" to="C0D0" fromLane="0" toLane="0" via=":C0_4_0" dir="t" state="m"/>
    <connection from=":C0_4" to="C0D0" fromLane="0" toLane="0" dir="t" state="M"/>
    <connection from=":C0_2" to="C0D0" fromLane="0" toLane="0" dir="s" state="M"/>
    <connection from=":C0_3" to="C0B0" fromLane="0" toLane="0" via=":C0_5_0" dir="t" state="m"/>
    <connection from=":C0_5" to="C0B0" fromLane="0" toLane="0" dir="t" state="M"/>
    <connection from=":D0_0" to="D0C0" fromLane="0" toLane="0" dir="s" state="M"/>
    <connection from=":D0_1" to="D0E0" fromLane="0" toLane="0" via=":D0_4_0" dir="t" state="m"/>
    <connection from=":D0_4" to="D0E0" fromLane="0" toLane="0" dir="t" state="M"/>
    <connection from=":D0_2" to="D0E0" fromLane="0" toLane="0" dir="s" state="M"/>
    <connection from=":D0_3" to="D0C0" fromLane="0" toLane="0" via=":D0_5_0" dir="t" state="m"/>
    <connection from=":D0_5" to="D0C0" fromLane="0" toLane="0" dir="t" state="M"/>
    <connection from=":E0_0" to="E0D0" fromLane="0" toLane="0" dir="t" state="M"/>

</net>
