<?xml version="1.0" encoding="UTF-8"?>
<routes xmlns:xsi="http://www.w3.org/2001/XMLSchema-instance" xsi:noNamespaceSchemaLocation="http://sumo.dlr.de/xsd/routes_file.xsd">
    <vType id="type1" vClass="passenger" accel="0.8" decel="4.5" sigma="0.5" length="5" maxSpeed="0.33"/>
    <vType id="type2" vClass="passenger" accel="0.8" decel="4.5" sigma="0.5" length="5" maxSpeed="13.89"/> 

     <route id="route0" color="1,1,0" edges="D0C0 C0B0 B0A0 A0B0 B0C0 C0D0 D0C0 C0B0 B0A0 A0B0 B0C0 C0D0 D0C0 C0B0 B0A0 A0B0 B0C0 C0D0 D0C0 C0B0 B0A0 A0B0 B0C0 C0D0 D0C0 C0B0 B0A0 A0B0 B0C0 C0D0 D0C0 C0B0 B0A0 A0B0 B0C0 C0D0 D0C0 C0B0 B0A0 A0B0 B0C0 C0D0 D0C0 C0B0 B0A0 A0B0 B0C0 C0D0 D0C0 C0B0 B0A0 A0B0 B0C0 C0D0 D0C0 C0B0 B0A0 A0B0 B0C0 C0D0 D0C0 C0B0 B0A0 A0B0 B0C0 C0D0 D0C0 C0B0 B0A0 A0B0 B0C0 C0D0 D0C0 C0B0 B0A0 A0B0 B0C0 C0D0 D0C0 C0B0 B0A0 A0B0 B0C0 C0D0 D0C0 C0B0 B0A0 A0B0 B0C0 C0D0 D0C0 C0B0 B0A0 A0B0 B0C0 C0D0 D0C0 C0B0 B0A0 A0B0 B0C0 C0D0 D0C0 C0B0 B0A0 A0B0 B0C0 C0D0 D0C0 C0B0 B0A0 A0B0 B0C0 C0D0 D0C0 C0B0 B0A0 A0B0 B0C0 C0D0 D0C0 C0B0 B0A0 A0B0 B0C0 C0D0 D0C0 C0B0 B0A0 A0B0 B0C0 C0D0 D0C0 C0B0 B0A0 A0B0 B0C0 C0D0 D0C0 C0B0 B0A0 A0B0 B0C0 C0D0 D0C0 C0B0 B0A0 A0B0 B0C0 C0D0 D0C0 C0B0 B0A0 A0B0 B0C0 C0D0 D0C0 C0B0 B0A0 A0B0 B0C0 C0D0 D0C0 C0B0 B0A0 A0B0 B0C0 C0D0 D0C0 C0B0 B0A0 A0B0 B0C0 C0D0 D0C0 C0B0 B0A0 A0B0 B0C0 C0D0 D0C0 C0B0 B0A0 A0B0 B0C0 C0D0 D0C0 C0B0 B0A0 A0B0 B0C0 C0D0 D0C0 C0B0 B0A0 A0B0 B0C0 C0D0 D0C0 C0B0 B0A0 A0B0 B0C0 C0D0 D0C0 C0B0 B0A0 A0B0 B0C0 C0D0 D0C0 C0B0 B0A0 A0B0 B0C0 C0D0 D0C0 C0B0 B0A0 A0B0 B0C0 C0D0 D0C0 C0B0 B0A0 A0B0 B0C0 C0D0 D0C0 C0B0 B0A0 A0B0 B0C0 C0D0 D0C0 C0B0 B0A0 A0B0 B0C0 C0D0 D0C0 C0B0 B0A0 A0B0 B0C0 C0D0 D0C0 C0B0 B0A0 A0B0 B0C0 C0D0 D0C0 C0B0 B0A0 A0B0 B0C0 C0D0 D0C0 C0B0 B0A0 A0B0 B0C0 C0D0 D0C0 C0B0 B0A0 A0B0 B0C0 C0D0 D0C0 C0B0 B0A0 A0B0 B0C0 C0D0 D0C0 C0B0 B0A0 A0B0 B0C0 C0D0 D0C0 C0B0 B0A0 A0B0 B0C0 C0D0 D0C0 C0B0 B0A0 A0B0 B0C0 C0D0 D0C0 C0B0 B0A0 A0B0 B0C0 C0D0 D0C0 C0B0 B0A0 A0B0 B0C0 C0D0 D0C0 C0B0 B0A0 A0B0 B0C0 C0D0 D0C0 C0B0 B0A0 A0B0 B0C0 C0D0 D0C0 C0B0 B0A0 A0B0 B0C0 C0D0 D0C0 C0B0 B0A0 A0B0 B0C0 C0D0 D0C0 C0B0 B0A0 A0B0 B0C0 C0D0 D0C0 C0B0 B0A0 A0B0 B0C0 C0D0 D0C0 C0B0 B0A0 A0B0 B0C0 C0D0 D0C0 C0B0 B0A0 A0B0 B0C0 C0D0 D0C0 C0B0 B0A0 A0B0 B0C0 C0D0 D0C0 C0B0 B0A0 A0B0 B0C0 C0D0 D0C0 C0B0 B0A0 A0B0 B0C0 C0D0 D0C0 C0B0 B0A0 A0B0 B0C0 C0D0 D0C0 C0B0 B0A0 A0B0 B0C0 C0D0 D0C0 C0B0 B0A0 A0B0 B0C0 C0D0 D0C0 C0B0 B0A0 A0B0 B0C0 C0D0 D0C0 C0B0 B0A0 A0B0 B0C0 C0D0 D0C0 C0B0 B0A0 A0B0 B0C0 C0D0 D0C0 C0B0 B0A0 A0B0 B0C0 C0D0 D0C0 C0B0 B0A0 A0B0 B0C0 C0D0 D0C0 C0B0 B0A0 A0B0 B0C0 C0D0 D0C0 C0B0 B0A0 A0B0 B0C0 C0D0 D0C0 C0B0 B0A0 A0B0 B0C0 C0D0 D0C0 C0B0 B0A0 A0B0 B0C0 C0D0 D0C0 C0B0 B0A0 A0B0 B0C0 C0D0 D0C0 C0B0 B0A0 A0B0 B0C0 C0D0 D0C0 C0B0 B0A0 A0B0 B0C0 C0D0 D0C0 C0B0 B0A0 A0B0 B0C0 C0D0 D0C0 C0B0 B0A0 A0B0 B0C0 C0D0 D0C0 C0B0 B0A0 A0B0 B0C0 C0D0 D0C0 C0B0 B0A0 A0B0 B0C0 C0D0 D0C0 C0B0 B0A0 A0B0 B0C0 C0D0 D0C0 C0B0 B0A0 A0B0 B0C0 C0D0 D0C0 C0B0 B0A0 A0B0 B0C0 C0D0 D0C0 C0B0 B0A0 A0B0 B0C0 C0D0 D0C0 C0B0 B0A0 A0B0 B0C0 C0D0 D0C0 C0B0 B0A0 A0B0 B0C0 C0D0 D0C0 C0B0 B0A0 A0B0 B0C0 C0D0 D0C0 C0B0 B0A0 A0B0 B0C0 C0D0 D0C0 C0B0 B0A0 A0B0 B0C0 C0D0 D0C0 C0B0 B0A0 A0B0 B0C0 C0D0 D0C0 C0B0 B0A0 A0B0 B0C0 C0D0 D0C0 C0B0 B0A0 A0B0 B0C0 C0D0 D0C0 C0B0 B0A0 A0B0 B0C0 C0D0 D0C0 C0B0 B0A0 A0B0 B0C0 C0D0 D0C0 C0B0 B0A0 A0B0 B0C0 C0D0 D0C0 C0B0 B0A0 A0B0 B0C0 C0D0 D0C0 C0B0 B0A0 A0B0 B0C0 C0D0 D0C0 C0B0 B0A0 A0B0 B0C0 C0D0 D0C0 C0B0 B0A0 A0B0 B0C0 C0D0 D0C0 C0B0 B0A0 A0B0 B0C0 C0D0 D0C0 C0B0 B0A0 A0B0 B0C0 C0D0 D0C0 C0B0 B0A0 A0B0 B0C0 C0D0 D0C0 C0B0 B0A0 A0B0 B0C0 C0D0 D0C0 C0B0 B0A0 A0B0 B0C0 C0D0 D0C0 C0B0 B0A0 A0B0 B0C0 C0D0 D0C0 C0B0 B0A0 A0B0 B0C0 C0D0 D0C0 C0B0 B0A0 A0B0 B0C0 C0D0 D0C0 C0B0 B0A0 A0B0 B0C0 C0D0 D0C0 C0B0 B0A0 A0B0 B0C0 C0D0 D0C0 C0B0 B0A0 A0B0 B0C0 C0D0 D0C0 C0B0 B0A0 A0B0 B0C0 C0D0 D0C0 C0B0 B0A0 A0B0 B0C0 C0D0 D0C0 C0B0 B0A0 A0B0 B0C0 C0D0 D0C0 C0B0 B0A0 A0B0 B0C0 C0D0 D0C0 C0B0 B0A0 A0B0 B0C0 C0D0 D0C0 C0B0 B0A0 A0B0 B0C0 C0D0 D0C0 C0B0 B0A0 A0B0 B0C0 C0D0 D0C0 C0B0 B0A0 A0B0 B0C0 C0D0 D0C0 C0B0 B0A0 A0B0 B0C0 C0D0 D0C0 C0B0 B0A0 A0B0 B0C0 C0D0 D0C0 C0B0 B0A0 A0B0 B0C0 C0D0 D0C0 C0B0 B0A0 A0B0 B0C0 C0D0 D0C0 C0B0 B0A0 A0B0 B0C0 C0D0 D0C0 C0B0 B0A0 A0B0 B0C0 C0D0 D0C0 C0B0 B0A0 A0B0 B0C0 C0D0 D0C0 C0B0 B0A0 A0B0 B0C0 C0D0 D0C0 C0B0 B0A0 A0B0 B0C0 C0D0 D0C0 C0B0 B0A0 A0B0 B0C0 C0D0 D0C0 C0B0 B0A0 A0B0 B0C0 C0D0 D0C0 C0B0 B0A0 A0B0 B0C0 C0D0 D0C0 C0B0 B0A0 A0B0 B0C0 C0D0 D0C0 C0B0 B0A0 A0B0 B0C0 C0D0 D0C0 C0B0 B0A0 A0B0 B0C0 C0D0 D0C0 C0B0 B0A0 A0B0 B0C0 C0D0 D0C0 C0B0 B0A0 A0B0 B0C0 C0D0 D0C0 C0B0 B0A0 A0B0 B0C0 C0D0 D0C0 C0B0 B0A0 A0B0 B0C0 C0D0 D0C0 C0B0 B0A0 A0B0 B0C0 C0D0 D0C0 C0B0 B0A0 A0B0 B0C0 C0D0 D0C0 C0B0 B0A0 A0B0 B0C0 C0D0 D0C0 C0B0 B0A0 A0B0 B0C0 C0D0 D0C0 C0B0 B0A0 A0B0 B0C0 C0D0 D0C0 C0B0 B0A0 A0B0 B0C0 C0D0 D0C0 C0B0 B0A0 A0B0 B0C0 C0D0 D0C0 C0B0 B0A0 A0B0 B0C0 C0D0 D0C0 C0B0 B0A0 A0B0 B0C0 C0D0 D0C0 C0B0 B0A0 A0B0 B0C0 C0D0 D0C0 C0B0 B0A0 A0B0 B0C0 C0D0 D0C0 C0B0 B0A0 A0B0 B0C0 C0D0 D0C0 C0B0 B0A0 A0B0 B0C0 C0D0 D0C0 C0B0 B0A0 A0B0 B0C0 C0D0 D0C0 C0B0 B0A0 A0B0 B0C0 C0D0 D0C0 C0B0 B0A0 A0B0 B0C0 C0D0 D0C0 C0B0 B0A0 A0B0 B0C0 C0D0 D0C0 C0B0 B0A0 A0B0 B0C0 C0D0 D0C0 C0B0 B0A0 A0B0 B0C0 C0D0 D0C0 C0B0 B0A0 A0B0 B0C0 C0D0 D0C0 C0B0 B0A0 A0B0 B0C0 C0D0 D0C0 C0B0 B0A0 A0B0 B0C0 C0D0 D0C0 C0B0 B0A0 A0B0 B0C0 C0D0 D0C0 C0B0 B0A0 A0B0 B0C0 C0D0 D0C0 C0B0 B0A0 A0B0 B0C0 C0D0 D0C0 C0B0 B0A0 A0B0 B0C0 C0D0 D0C0 C0B0 B0A0 A0B0 B0C0 C0D0 D0C0 C0B0 B0A0 A0B0 B0C0 C0D0 D0C0 C0B0 B0A0 A0B0 B0C0 C0D0 D0C0 C0B0 B0A0 A0B0 B0C0 C0D0 D0C0 C0B0 B0A0 A0B0 B0C0 C0D0 D0C0 C0B0 B0A0 A0B0 B0C0 C0D0 D0C0 C0B0 B0A0 A0B0 B0C0 C0D0 D0C0 C0B0 B0A0 A0B0 B0C0 C0D0 D0C0 C0B0 B0A0 A0B0 B0C0 C0D0 D0C0 C0B0 B0A0 A0B0 B0C0 C0D0 D0C0 C0B0 B0A0 A0B0 B0C0 C0D0 D0C0 C0B0 B0A0 A0B0 B0C0 C0D0 D0C0 C0B0 B0A0 A0B0 B0C0 C0D0 D0C0 C0B0 B0A0 A0B0 B0C0 C0D0 D0C0 C0B0 B0A0 A0B0 B0C0 C0D0 D0C0 C0B0 B0A0 A0B0 B0C0 C0D0 D0C0 C0B0 B0A0 A0B0 B0C0 C0D0 D0C0 C0B0 B0A0 A0B0 B0C0 C0D0 D0C0 C0B0 B0A0 A0B0 B0C0 C0D0 D0C0 C0B0 B0A0 A0B0 B0C0 C0D0 D0C0 C0B0 B0A0 A0B0 B0C0 C0D0 D0C0 C0B0 B0A0 A0B0 B0C0 C0D0 D0C0 C0B0 B0A0 A0B0 B0C0 C0D0 D0C0 C0B0 B0A0 A0B0 B0C0 C0D0"/>

    <vehicle id="passenger0" type="type1" depart="0" route="route0" color="1,1,0"/>
    <vehicle id="passenger2" type="type2" depart="0" route="route0" color="0,1,0"/>   
</routes>