<?xml version="1.0" encoding="UTF-8"?>
<!-- generated on 2021-05-14 19:56:11.216932 by $Id$
  options: -n map.net.xml -r passenger_routes.rou.xml -o passenger_trips.xml -b 0 -e 1 -p 0.0167 <doubleminus>vehicle-class passenger
-->
<routes xmlns:xsi="http://www.w3.org/2001/XMLSchema-instance" xsi:noNamespaceSchemaLocation="http://sumo.dlr.de/xsd/routes_file.xsd">
    <vType id="passenger" vClass="passenger"/>
    <trip id="0" depart="0.00" from="D0D1" to="B0C0" type="passenger"/>
    <trip id="1" depart="0.02" from="C1D1" to="A0A1" type="passenger"/>
    <trip id="2" depart="0.03" from="B0B1" to="B0B1" type="passenger"/>
    <trip id="3" depart="0.05" from="C0B0" to="D1D0" type="passenger"/>
    <trip id="4" depart="0.07" from="D1C1" to="B0A0" type="passenger"/>
    <trip id="5" depart="0.08" from="A1B1" to="A0A1" type="passenger"/>
    <trip id="6" depart="0.10" from="B1B0" to="B0B1" type="passenger"/>
    <trip id="7" depart="0.12" from="D0D1" to="D0C0" type="passenger"/>
    <trip id="8" depart="0.13" from="B0B1" to="C0C1" type="passenger"/>
    <trip id="9" depart="0.15" from="B0A0" to="C1D1" type="passenger"/>
    <trip id="10" depart="0.17" from="D0C0" to="C1C0" type="passenger"/>
    <trip id="11" depart="0.18" from="C1C0" to="B0C0" type="passenger"/>
    <trip id="12" depart="0.20" from="A0B0" to="D1D0" type="passenger"/>
    <trip id="13" depart="0.22" from="D0D1" to="A0A1" type="passenger"/>
    <trip id="14" depart="0.23" from="D0C0" to="B1A1" type="passenger"/>
    <trip id="15" depart="0.25" from="C0B0" to="C1B1" type="passenger"/>
    <trip id="16" depart="0.27" from="A0B0" to="D0D1" type="passenger"/>
    <trip id="17" depart="0.28" from="A0B0" to="B0A0" type="passenger"/>
    <trip id="18" depart="0.30" from="C0C1" to="C1C0" type="passenger"/>
    <trip id="19" depart="0.32" from="C1C0" to="C0D0" type="passenger"/>
    <trip id="20" depart="0.33" from="C0B0" to="A0B0" type="passenger"/>
    <trip id="21" depart="0.35" from="B1A1" to="B0A0" type="passenger"/>
    <trip id="22" depart="0.37" from="B0C0" to="B1A1" type="passenger"/>
    <trip id="23" depart="0.38" from="B0A0" to="B0C0" type="passenger"/>
    <trip id="24" depart="0.40" from="B0A0" to="B0C0" type="passenger"/>
    <trip id="25" depart="0.42" from="C0C1" to="C0C1" type="passenger"/>
    <trip id="26" depart="0.43" from="C1B1" to="C1D1" type="passenger"/>
    <trip id="27" depart="0.45" from="C0D0" to="B1B0" type="passenger"/>
    <trip id="28" depart="0.47" from="C1C0" to="D1C1" type="passenger"/>
    <trip id="29" depart="0.48" from="A0B0" to="D1D0" type="passenger"/>
    <trip id="30" depart="0.50" from="D0D1" to="B0B1" type="passenger"/>
    <trip id="31" depart="0.52" from="A0B0" to="C0C1" type="passenger"/>
    <trip id="32" depart="0.53" from="D0D1" to="B1C1" type="passenger"/>
    <trip id="33" depart="0.55" from="B1B0" to="D1C1" type="passenger"/>
    <trip id="34" depart="0.57" from="B0B1" to="B1A1" type="passenger"/>
    <trip id="35" depart="0.58" from="A0B0" to="B1B0" type="passenger"/>
    <trip id="36" depart="0.60" from="A0A1" to="D1C1" type="passenger"/>
    <trip id="37" depart="0.62" from="D1D0" to="D0C0" type="passenger"/>
    <trip id="38" depart="0.63" from="A0B0" to="D0C0" type="passenger"/>
    <trip id="39" depart="0.65" from="D0C0" to="C0D0" type="passenger"/>
    <trip id="40" depart="0.67" from="B0A0" to="B0B1" type="passenger"/>
    <trip id="41" depart="0.68" from="B0B1" to="B1B0" type="passenger"/>
    <trip id="42" depart="0.70" from="C1D1" to="C0C1" type="passenger"/>
    <trip id="43" depart="0.72" from="A1A0" to="C0C1" type="passenger"/>
    <trip id="44" depart="0.73" from="A1A0" to="B1C1" type="passenger"/>
    <trip id="45" depart="0.75" from="C1B1" to="A0A1" type="passenger"/>
    <trip id="46" depart="0.77" from="C0C1" to="C1D1" type="passenger"/>
    <trip id="47" depart="0.78" from="D1D0" to="D1C1" type="passenger"/>
    <trip id="48" depart="0.80" from="C0B0" to="A0A1" type="passenger"/>
    <trip id="49" depart="0.82" from="B1A1" to="A0B0" type="passenger"/>
    <trip id="50" depart="0.84" from="B1C1" to="D1C1" type="passenger"/>
    <trip id="51" depart="0.85" from="C0B0" to="B0B1" type="passenger"/>
    <trip id="52" depart="0.87" from="B0B1" to="B1B0" type="passenger"/>
    <trip id="53" depart="0.89" from="C1C0" to="D0C0" type="passenger"/>
    <trip id="54" depart="0.90" from="B0A0" to="B1A1" type="passenger"/>
    <trip id="55" depart="0.92" from="B0C0" to="C0C1" type="passenger"/>
    <trip id="56" depart="0.94" from="B0B1" to="D0C0" type="passenger"/>
    <trip id="57" depart="0.95" from="B0A0" to="B0A0" type="passenger"/>
    <trip id="58" depart="0.97" from="B1A1" to="B1B0" type="passenger"/>
    <trip id="59" depart="0.99" from="C1B1" to="C1D1" type="passenger"/>
</routes>
