<?xml version="1.0" encoding="UTF-8"?>

<routes xmlns:xsi="http://www.w3.org/2001/XMLSchema-instance" xsi:noNamespaceSchemaLocation="http://sumo.dlr.de/xsd/routes_file.xsd">
    <vehicle id="acc0" type="passenger" depart="0.00">
        <route edges="B0C0 C0D0 D0D1"/>
        <stop lane="B0C0_0" endPos="15" duration="180"/>
    </vehicle>
</routes>
