<?xml version="1.0" encoding="UTF-8"?>
<!-- generated on 2021-04-08 11:47:31.743734 by $Id$
  options: -n map.net.xml -r emergency_routes.rou.xml -o emergency_trips.xml -e 10 -p 10 <doubleminus>vehicle-class emergency <doubleminus>trip-attributes=color="255,255,255"
-->
<routes xmlns:xsi="http://www.w3.org/2001/XMLSchema-instance" xsi:noNamespaceSchemaLocation="http://sumo.dlr.de/xsd/routes_file.xsd">
    <vType id="emergency" vClass="emergency" color="255,255,255"/>
    <trip id="0" depart="0.00" from="A1A2" to="C1B1" type="emergency"/>
</routes>
