<?xml version="1.0" encoding="UTF-8"?>
<!-- generated on 2021-03-05 16:25:40.212026 by $Id$
  options: -n circle.net.xml -r circle.rou.xml -o circle.trips.xml -b 3 -e 10 -p 1 <doubleminus>vehicle-class passenger <doubleminus>trip-attributes=color="255,255,255"
-->
<routes xmlns:xsi="http://www.w3.org/2001/XMLSchema-instance" xsi:noNamespaceSchemaLocation="http://sumo.dlr.de/xsd/routes_file.xsd">
    <vType id="passenger" vClass="passenger" color="255,255,255"/>
    <trip id="0" depart="3.00" from="e8" to="e4" type="passenger"/>
    <trip id="1" depart="4.00" from="e4" to="e7" type="passenger"/>
    <trip id="2" depart="5.00" from="e2" to="e5" type="passenger"/>
    <trip id="3" depart="6.00" from="e6" to="e10" type="passenger"/>
    <trip id="4" depart="7.00" from="e3" to="e3" type="passenger"/>
    <trip id="5" depart="8.00" from="e5" to="e14" type="passenger"/>
    <trip id="6" depart="9.00" from="e13" to="e9" type="passenger"/>
</routes>
