<?xml version="1.0" encoding="UTF-8"?>

<!-- generated on Wed Apr  7 11:32:27 2021 by Eclipse SUMO duarouter Version 1.1.0
<configuration xmlns:xsi="http://www.w3.org/2001/XMLSchema-instance" xsi:noNamespaceSchemaLocation="http://sumo.dlr.de/xsd/duarouterConfiguration.xsd">

    <input>
        <net-file value="map.net.xml"/>
        <route-files value="emergency_trips.xml"/>
    </input>

    <output>
        <output-file value="emergency_routes.rou.xml"/>
        <alternatives-output value="emergency_routes.rou.alt.xml"/>
    </output>

    <time>
        <begin value="0"/>
        <end value="300.0"/>
    </time>

    <report>
        <no-warnings value="true"/>
        <ignore-errors value="true"/>
        <no-step-log value="true"/>
    </report>

</configuration>
-->

<routes xmlns:xsi="http://www.w3.org/2001/XMLSchema-instance" xsi:noNamespaceSchemaLocation="http://sumo.dlr.de/xsd/routes_file.xsd">
    <vType id="emergency" vClass="emergency" color="white"/>
    <vehicle id="emergency0" type="emergency" depart="0.00">
        <route edges="A1A0 A0A1 A1A2 A2B2 B2C2 C2D2"/>
    </vehicle>
    <vehicle id="emergency1" type="emergency" depart="30.00">
        <route edges="B3C3 C3C2 C2D2 D2D1 D1C1"/>
    </vehicle>
    <vehicle id="emergency2" type="emergency" depart="60.00">
        <route edges="D3D2 D2D1 D1D0 D0C0 C0B0 B0B1"/>
    </vehicle>
    <vehicle id="emergency3" type="emergency" depart="90.00">
        <route edges="D2C2 C2C1 C1C0 C0B0 B0B1"/>
    </vehicle>
    <vehicle id="emergency4" type="emergency" depart="120.00">
        <route edges="B0A0 A0B0 B0B1 B1B2 B2C2 C2D2 D2C2"/>
    </vehicle>
    <vehicle id="emergency5" type="emergency" depart="150.00">
        <route edges="D2D1 D1D2"/>
    </vehicle>
    <vehicle id="emergency6" type="emergency" depart="180.00">
        <route edges="C0B0 B0B1 B1C1"/>
    </vehicle>
    <vehicle id="emergency7" type="emergency" depart="210.00">
        <route edges="D2D1 D1C1 C1B1 B1A1"/>
    </vehicle>
    <vehicle id="emergency8" type="emergency" depart="240.00">
        <route edges="C1C2 C2C1 C1B1 B1A1"/>
    </vehicle>
    <vehicle id="emergency9" type="emergency" depart="270.00">
        <route edges="C1C2 C2C1 C1B1 B1C1"/>
    </vehicle>
</routes>
