<?xml version="1.0" encoding="UTF-8"?>

<!-- generated on Sat 01 May 2021 06:37:47 PM -03 by Eclipse SUMO netedit Version 1.1.0
<configuration xmlns:xsi="http://www.w3.org/2001/XMLSchema-instance" xsi:noNamespaceSchemaLocation="http://sumo.dlr.de/xsd/netconvertConfiguration.xsd">

    <input>
        <sumo-net-file value="map.net.xml"/>
    </input>

    <output>
        <output-file value="/home/ndnsim/ndnSIM/ns-3/contrib/ndn4ivc/traces/grid/map.net.xml"/>
    </output>

    <processing>
        <geometry.max-grade.fix value="false"/>
        <offset.disable-normalization value="true"/>
        <lefthand value="false"/>
    </processing>

    <junctions>
        <no-turnarounds value="true"/>
        <junctions.corner-detail value="5"/>
        <junctions.limit-turn-speed value="5.5"/>
        <rectangular-lane-cut value="false"/>
    </junctions>

    <pedestrian>
        <walkingareas value="false"/>
    </pedestrian>

    <visualisation>
        <registry-viewport value="true"/>
    </visualisation>

</configuration>
-->

<net version="1.1" junctionCornerDetail="5" limitTurnSpeed="5.50" xmlns:xsi="http://www.w3.org/2001/XMLSchema-instance" xsi:noNamespaceSchemaLocation="http://sumo.dlr.de/xsd/net_file.xsd">

    <location netOffset="0.00,0.00" convBoundary="-18.88,250.00,250.00,250.04" origBoundary="0.00,0.00,250.00,250.00" projParameter="!"/>

    <edge id=":A1_0" function="internal">
        <lane id=":A1_0_0" index="0" speed="13.89" length="0.30" shape="-0.16,245.20 0.15,245.20"/>
        <lane id=":A1_0_1" index="1" speed="13.89" length="0.30" shape="-0.15,248.40 0.15,248.40"/>
    </edge>

    <edge id="A0A1" from="A0" to="A1" priority="-1">
        <lane id="A0A1_0" index="0" speed="13.89" length="18.73" shape="-18.89,245.24 -0.16,245.20"/>
        <lane id="A0A1_1" index="1" speed="13.89" length="18.73" shape="-18.88,248.44 -0.15,248.40"/>
    </edge>
    <edge id="A1B1" from="A1" to="B1" priority="-1">
        <lane id="A1B1_0" index="0" speed="13.89" length="249.85" shape="0.15,245.20 250.00,245.20"/>
        <lane id="A1B1_1" index="1" speed="13.89" length="249.85" shape="0.15,248.40 250.00,248.40"/>
    </edge>

    <junction id="A0" type="dead_end" x="-18.88" y="250.04" incLanes="" intLanes="" shape="-18.88,250.04 -18.89,243.64"/>
    <junction id="A1" type="priority" x="0.00" y="250.00" incLanes="A0A1_0 A0A1_1" intLanes=":A1_0_0 :A1_0_1" shape="0.15,250.00 0.15,243.60 -0.16,243.60 -0.15,250.00">
        <request index="0" response="00" foes="00" cont="0"/>
        <request index="1" response="00" foes="00" cont="0"/>
    </junction>
    <junction id="B1" type="dead_end" x="250.00" y="250.00" incLanes="A1B1_0 A1B1_1" intLanes="" shape="250.00,243.60 250.00,250.00"/>

    <connection from="A0A1" to="A1B1" fromLane="0" toLane="0" via=":A1_0_0" dir="s" state="M"/>
    <connection from="A0A1" to="A1B1" fromLane="1" toLane="1" via=":A1_0_1" dir="s" state="M"/>

    <connection from=":A1_0" to="A1B1" fromLane="0" toLane="0" dir="s" state="M"/>
    <connection from=":A1_0" to="A1B1" fromLane="1" toLane="1" dir="s" state="M"/>

</net>
