<?xml version="1.0" encoding="UTF-8"?>

<!-- generated on Thu Apr 22 07:50:49 2021 by Eclipse SUMO duarouter Version 1.1.0
<configuration xmlns:xsi="http://www.w3.org/2001/XMLSchema-instance" xsi:noNamespaceSchemaLocation="http://sumo.dlr.de/xsd/duarouterConfiguration.xsd">

    <input>
        <net-file value="map.net.xml"/>
        <route-files value="passenger_trips.xml"/>
    </input>

    <output>
        <output-file value="passenger_routes.rou.xml"/>
        <alternatives-output value="passenger_routes.rou.alt.xml"/>
    </output>

    <time>
        <begin value="0"/>
        <end value="300.0"/>
    </time>

    <report>
        <no-warnings value="true"/>
        <ignore-errors value="true"/>
        <no-step-log value="true"/>
    </report>

</configuration>
-->

<routes xmlns:xsi="http://www.w3.org/2001/XMLSchema-instance" xsi:noNamespaceSchemaLocation="http://sumo.dlr.de/xsd/routes_file.xsd">
    <vType id="passenger" vClass="passenger"/>
    <vehicle id="passenger0" type="passenger" depart="0.00">
        <route edges="B0B1 B1C1 C1D1 D1D0 D0D1"/>
    </vehicle>
    <vehicle id="passenger1" type="passenger" depart="1.00">
        <route edges="C0D0 D0D1 D1D0"/>
    </vehicle>
    <vehicle id="passenger2" type="passenger" depart="2.00">
        <route edges="C0D0 D0C0 C0B0 B0A0 A0A1"/>
    </vehicle>
    <vehicle id="passenger3" type="passenger" depart="3.00">
        <route edges="C0D0 D0C0 C0B0 B0B1"/>
    </vehicle>
    <vehicle id="passenger4" type="passenger" depart="4.00">
        <route edges="C1B1 B1B0 B0A0"/>
    </vehicle>
    <vehicle id="passenger5" type="passenger" depart="5.00">
        <route edges="B0A0 A0B0 B0C0 C0B0"/>
    </vehicle>
    <vehicle id="passenger6" type="passenger" depart="6.00">
        <route edges="B1A1 A1B1 B1B0 B0A0"/>
    </vehicle>
    <vehicle id="passenger7" type="passenger" depart="7.00">
        <route edges="C1B1 B1C1 C1D1 D1D0"/>
    </vehicle>
    <vehicle id="passenger8" type="passenger" depart="8.00">
        <route edges="A0A1 A1B1 B1C1 C1B1"/>
    </vehicle>
    <vehicle id="passenger9" type="passenger" depart="9.00">
        <route edges="A0A1 A1B1 B1C1 C1C0 C0D0"/>
    </vehicle>
    <vehicle id="passenger10" type="passenger" depart="10.00">
        <route edges="D0D1 D1C1 C1B1 B1A1"/>
    </vehicle>
    <vehicle id="passenger11" type="passenger" depart="11.00">
        <route edges="A0A1 A1A0"/>
    </vehicle>
    <vehicle id="passenger12" type="passenger" depart="12.00">
        <route edges="D1C1 C1B1 B1C1"/>
    </vehicle>
    <vehicle id="passenger13" type="passenger" depart="13.00">
        <route edges="C1D1 D1D0"/>
    </vehicle>
    <vehicle id="passenger14" type="passenger" depart="14.00">
        <route edges="C0B0"/>
    </vehicle>
    <vehicle id="passenger15" type="passenger" depart="15.00">
        <route edges="B0A0 A0B0 B0C0 C0C1 C1D1"/>
    </vehicle>
    <vehicle id="passenger16" type="passenger" depart="16.00">
        <route edges="C1D1 D1C1 C1C0"/>
    </vehicle>
    <vehicle id="passenger17" type="passenger" depart="17.00">
        <route edges="D1D0 D0C0 C0B0 B0A0 A0B0"/>
    </vehicle>
    <vehicle id="passenger18" type="passenger" depart="18.00">
        <route edges="B1A1 A1B1 B1C1 C1D1 D1D0"/>
    </vehicle>
    <vehicle id="passenger19" type="passenger" depart="19.00">
        <route edges="B1A1 A1B1 B1C1 C1B1"/>
    </vehicle>
    <vehicle id="passenger20" type="passenger" depart="20.00">
        <route edges="C0D0 D0C0 C0B0 B0C0"/>
    </vehicle>
    <vehicle id="passenger21" type="passenger" depart="21.00">
        <route edges="A0B0 B0C0 C0C1 C1D1 D1D0"/>
    </vehicle>
    <vehicle id="passenger22" type="passenger" depart="22.00">
        <route edges="B0A0 A0B0 B0C0 C0C1 C1C0"/>
    </vehicle>
    <vehicle id="passenger23" type="passenger" depart="23.00">
        <route edges="C0C1"/>
    </vehicle>
    <vehicle id="passenger24" type="passenger" depart="24.00">
        <route edges="D1D0 D0C0 C0B0 B0C0"/>
    </vehicle>
    <vehicle id="passenger25" type="passenger" depart="25.00">
        <route edges="D0C0 C0B0 B0C0"/>
    </vehicle>
    <vehicle id="passenger26" type="passenger" depart="26.00">
        <route edges="C1C0 C0B0 B0A0 A0A1"/>
    </vehicle>
    <vehicle id="passenger27" type="passenger" depart="27.00">
        <route edges="B0C0 C0B0 B0A0"/>
    </vehicle>
    <vehicle id="passenger28" type="passenger" depart="28.00">
        <route edges="C0C1 C1C0"/>
    </vehicle>
    <vehicle id="passenger29" type="passenger" depart="29.00">
        <route edges="A0B0 B0C0 C0B0"/>
    </vehicle>
    <vehicle id="passenger30" type="passenger" depart="30.00">
        <route edges="A0A1 A1B1"/>
    </vehicle>
    <vehicle id="passenger31" type="passenger" depart="31.00">
        <route edges="B1A1"/>
    </vehicle>
    <vehicle id="passenger32" type="passenger" depart="32.00">
        <route edges="B0A0 A0B0 B0B1 B1A1"/>
    </vehicle>
    <vehicle id="passenger33" type="passenger" depart="33.00">
        <route edges="A1B1 B1A1 A1A0"/>
    </vehicle>
    <vehicle id="passenger34" type="passenger" depart="34.00">
        <route edges="A0A1 A1B1 B1C1 C1D1 D1D0 D0D1"/>
    </vehicle>
    <vehicle id="passenger35" type="passenger" depart="35.00">
        <route edges="B0A0 A0B0 B0C0 C0C1 C1C0"/>
    </vehicle>
    <vehicle id="passenger36" type="passenger" depart="36.00">
        <route edges="B0A0 A0B0 B0C0"/>
    </vehicle>
    <vehicle id="passenger37" type="passenger" depart="37.00">
        <route edges="A1B1 B1C1 C1C0 C0B0"/>
    </vehicle>
    <vehicle id="passenger38" type="passenger" depart="38.00">
        <route edges="A1A0 A0A1"/>
    </vehicle>
    <vehicle id="passenger39" type="passenger" depart="39.00">
        <route edges="D1D0 D0C0 C0C1 C1D1"/>
    </vehicle>
    <vehicle id="passenger40" type="passenger" depart="40.00">
        <route edges="D0D1 D1D0 D0C0"/>
    </vehicle>
    <vehicle id="passenger41" type="passenger" depart="41.00">
        <route edges="A0B0 B0B1 B1A1"/>
    </vehicle>
    <vehicle id="passenger42" type="passenger" depart="42.00">
        <route edges="C0B0 B0C0 C0D0 D0D1"/>
    </vehicle>
    <vehicle id="passenger43" type="passenger" depart="43.00">
        <route edges="C1B1 B1A1"/>
    </vehicle>
    <vehicle id="passenger44" type="passenger" depart="44.00">
        <route edges="C0D0 D0C0 C0B0 B0A0 A0A1 A1A0"/>
    </vehicle>
    <vehicle id="passenger45" type="passenger" depart="45.00">
        <route edges="B1C1 C1C0 C0C1"/>
    </vehicle>
    <vehicle id="passenger46" type="passenger" depart="46.00">
        <route edges="D0D1 D1D0 D0C0"/>
    </vehicle>
    <vehicle id="passenger47" type="passenger" depart="47.00">
        <route edges="A1A0 A0B0 B0C0 C0C1"/>
    </vehicle>
    <vehicle id="passenger48" type="passenger" depart="48.00">
        <route edges="C0D0 D0C0 C0B0 B0B1 B1B0"/>
    </vehicle>
    <vehicle id="passenger49" type="passenger" depart="49.00">
        <route edges="B1C1 C1B1 B1B0"/>
    </vehicle>
    <vehicle id="passenger50" type="passenger" depart="50.00">
        <route edges="A0A1"/>
    </vehicle>
    <vehicle id="passenger51" type="passenger" depart="51.00">
        <route edges="A1A0 A0A1 A1B1 B1C1 C1D1"/>
    </vehicle>
    <vehicle id="passenger52" type="passenger" depart="52.00">
        <route edges="A1A0 A0A1"/>
    </vehicle>
    <vehicle id="passenger53" type="passenger" depart="53.00">
        <route edges="B0A0 A0A1 A1B1"/>
    </vehicle>
    <vehicle id="passenger54" type="passenger" depart="54.00">
        <route edges="B0C0 C0C1 C1D1 D1C1"/>
    </vehicle>
    <vehicle id="passenger55" type="passenger" depart="55.00">
        <route edges="B0A0 A0B0 B0C0 C0D0"/>
    </vehicle>
    <vehicle id="passenger56" type="passenger" depart="56.00">
        <route edges="B1B0 B0B1"/>
    </vehicle>
    <vehicle id="passenger57" type="passenger" depart="57.00">
        <route edges="B1C1 C1B1 B1B0 B0A0"/>
    </vehicle>
    <vehicle id="passenger58" type="passenger" depart="58.00">
        <route edges="A1A0 A0A1 A1B1 B1C1"/>
    </vehicle>
    <vehicle id="passenger59" type="passenger" depart="59.00">
        <route edges="C1D1 D1D0 D0C0"/>
    </vehicle>
    <vehicle id="passenger60" type="passenger" depart="60.00">
        <route edges="A0A1 A1A0 A0B0"/>
    </vehicle>
    <vehicle id="passenger61" type="passenger" depart="61.00">
        <route edges="D0D1 D1C1 C1B1 B1A1"/>
    </vehicle>
    <vehicle id="passenger62" type="passenger" depart="62.00">
        <route edges="B0A0 A0B0 B0C0 C0C1 C1C0"/>
    </vehicle>
    <vehicle id="passenger63" type="passenger" depart="63.00">
        <route edges="C1D1 D1C1 C1B1 B1B0 B0B1"/>
    </vehicle>
    <vehicle id="passenger64" type="passenger" depart="64.00">
        <route edges="C1D1 D1C1 C1B1 B1B0"/>
    </vehicle>
    <vehicle id="passenger65" type="passenger" depart="65.00">
        <route edges="D1C1 C1B1 B1C1"/>
    </vehicle>
    <vehicle id="passenger66" type="passenger" depart="66.00">
        <route edges="C0D0 D0C0 C0B0 B0B1 B1B0"/>
    </vehicle>
    <vehicle id="passenger67" type="passenger" depart="67.00">
        <route edges="B1C1 C1C0 C0C1"/>
    </vehicle>
    <vehicle id="passenger68" type="passenger" depart="68.00">
        <route edges="D0D1 D1C1 C1B1"/>
    </vehicle>
    <vehicle id="passenger69" type="passenger" depart="69.00">
        <route edges="B0C0 C0D0 D0C0"/>
    </vehicle>
    <vehicle id="passenger70" type="passenger" depart="70.00">
        <route edges="B1B0 B0A0 A0B0"/>
    </vehicle>
    <vehicle id="passenger71" type="passenger" depart="71.00">
        <route edges="B0B1 B1B0 B0A0"/>
    </vehicle>
    <vehicle id="passenger72" type="passenger" depart="72.00">
        <route edges="A1B1"/>
    </vehicle>
    <vehicle id="passenger73" type="passenger" depart="73.00">
        <route edges="D1D0 D0C0 C0B0 B0A0 A0A1 A1B1"/>
    </vehicle>
    <vehicle id="passenger74" type="passenger" depart="74.00">
        <route edges="D0D1 D1D0 D0C0 C0B0 B0B1"/>
    </vehicle>
    <vehicle id="passenger75" type="passenger" depart="75.00">
        <route edges="C1C0 C0B0 B0B1 B1B0"/>
    </vehicle>
    <vehicle id="passenger76" type="passenger" depart="76.00">
        <route edges="D0D1 D1C1 C1C0"/>
    </vehicle>
    <vehicle id="passenger77" type="passenger" depart="77.00">
        <route edges="D1C1 C1B1 B1B0 B0B1"/>
    </vehicle>
    <vehicle id="passenger78" type="passenger" depart="78.00">
        <route edges="B1C1 C1B1 B1A1 A1A0"/>
    </vehicle>
    <vehicle id="passenger79" type="passenger" depart="79.00">
        <route edges="B1A1 A1B1 B1C1 C1D1 D1D0"/>
    </vehicle>
    <vehicle id="passenger80" type="passenger" depart="80.00">
        <route edges="A0B0 B0C0 C0D0 D0C0"/>
    </vehicle>
    <vehicle id="passenger81" type="passenger" depart="81.00">
        <route edges="C0B0 B0C0 C0D0 D0D1"/>
    </vehicle>
    <vehicle id="passenger82" type="passenger" depart="82.00">
        <route edges="C1C0 C0B0 B0A0"/>
    </vehicle>
    <vehicle id="passenger83" type="passenger" depart="83.00">
        <route edges="B1C1 C1D1 D1C1"/>
    </vehicle>
    <vehicle id="passenger84" type="passenger" depart="84.00">
        <route edges="B0A0 A0B0 B0C0 C0D0"/>
    </vehicle>
    <vehicle id="passenger85" type="passenger" depart="85.00">
        <route edges="B1A1 A1B1 B1B0"/>
    </vehicle>
    <vehicle id="passenger86" type="passenger" depart="86.00">
        <route edges="B1C1"/>
    </vehicle>
    <vehicle id="passenger87" type="passenger" depart="87.00">
        <route edges="C1D1 D1C1 C1C0"/>
    </vehicle>
    <vehicle id="passenger88" type="passenger" depart="88.00">
        <route edges="C0D0"/>
    </vehicle>
    <vehicle id="passenger89" type="passenger" depart="89.00">
        <route edges="D0D1 D1C1 C1B1 B1A1 A1A0"/>
    </vehicle>
    <vehicle id="passenger90" type="passenger" depart="90.00">
        <route edges="D0C0 C0D0 D0D1 D1D0"/>
    </vehicle>
    <vehicle id="passenger91" type="passenger" depart="91.00">
        <route edges="C1D1 D1C1 C1B1 B1B0"/>
    </vehicle>
    <vehicle id="passenger92" type="passenger" depart="92.00">
        <route edges="A1B1 B1C1 C1D1"/>
    </vehicle>
    <vehicle id="passenger93" type="passenger" depart="93.00">
        <route edges="A1A0 A0A1"/>
    </vehicle>
    <vehicle id="passenger94" type="passenger" depart="94.00">
        <route edges="D0C0 C0C1 C1D1"/>
    </vehicle>
    <vehicle id="passenger95" type="passenger" depart="95.00">
        <route edges="B1C1 C1C0 C0C1"/>
    </vehicle>
    <vehicle id="passenger96" type="passenger" depart="96.00">
        <route edges="B0A0 A0A1"/>
    </vehicle>
    <vehicle id="passenger97" type="passenger" depart="97.00">
        <route edges="B1B0 B0A0 A0B0"/>
    </vehicle>
    <vehicle id="passenger98" type="passenger" depart="98.00">
        <route edges="B1A1 A1B1 B1C1 C1B1"/>
    </vehicle>
    <vehicle id="passenger99" type="passenger" depart="99.00">
        <route edges="C1D1 D1C1 C1C0 C0D0"/>
    </vehicle>
    <vehicle id="passenger100" type="passenger" depart="100.00">
        <route edges="B0C0"/>
    </vehicle>
    <vehicle id="passenger101" type="passenger" depart="101.00">
        <route edges="C1D1 D1C1 C1B1 B1B0 B0A0 A0A1"/>
    </vehicle>
    <vehicle id="passenger102" type="passenger" depart="102.00">
        <route edges="B0A0 A0B0 B0B1 B1A1"/>
    </vehicle>
    <vehicle id="passenger103" type="passenger" depart="103.00">
        <route edges="B1A1 A1B1 B1C1"/>
    </vehicle>
    <vehicle id="passenger104" type="passenger" depart="104.00">
        <route edges="A1A0 A0A1 A1B1 B1C1"/>
    </vehicle>
    <vehicle id="passenger105" type="passenger" depart="105.00">
        <route edges="A0A1 A1B1 B1C1 C1D1 D1D0 D0C0"/>
    </vehicle>
    <vehicle id="passenger106" type="passenger" depart="106.00">
        <route edges="C0D0 D0C0 C0B0 B0A0 A0A1 A1B1"/>
    </vehicle>
    <vehicle id="passenger107" type="passenger" depart="107.00">
        <route edges="C0D0 D0D1 D1D0"/>
    </vehicle>
    <vehicle id="passenger108" type="passenger" depart="108.00">
        <route edges="A0A1 A1B1 B1C1 C1C0"/>
    </vehicle>
    <vehicle id="passenger109" type="passenger" depart="109.00">
        <route edges="D0C0 C0B0 B0A0 A0B0"/>
    </vehicle>
    <vehicle id="passenger110" type="passenger" depart="110.00">
        <route edges="A1A0 A0B0 B0C0 C0D0"/>
    </vehicle>
    <vehicle id="passenger111" type="passenger" depart="111.00">
        <route edges="A0A1 A1B1 B1C1 C1C0 C0D0"/>
    </vehicle>
    <vehicle id="passenger112" type="passenger" depart="112.00">
        <route edges="C0D0 D0C0 C0B0 B0B1 B1A1"/>
    </vehicle>
    <vehicle id="passenger113" type="passenger" depart="113.00">
        <route edges="A0A1 A1B1 B1C1 C1D1 D1D0 D0C0"/>
    </vehicle>
    <vehicle id="passenger114" type="passenger" depart="114.00">
        <route edges="C1B1 B1C1 C1C0 C0C1"/>
    </vehicle>
    <vehicle id="passenger115" type="passenger" depart="115.00">
        <route edges="A1A0 A0B0 B0B1"/>
    </vehicle>
    <vehicle id="passenger116" type="passenger" depart="116.00">
        <route edges="C1C0 C0B0 B0B1"/>
    </vehicle>
    <vehicle id="passenger117" type="passenger" depart="117.00">
        <route edges="C1B1 B1C1 C1D1 D1D0 D0D1"/>
    </vehicle>
    <vehicle id="passenger118" type="passenger" depart="118.00">
        <route edges="C1B1 B1C1 C1D1 D1D0 D0C0"/>
    </vehicle>
    <vehicle id="passenger119" type="passenger" depart="119.00">
        <route edges="C1D1 D1D0 D0D1"/>
    </vehicle>
    <vehicle id="passenger120" type="passenger" depart="120.00">
        <route edges="A0B0 B0C0 C0B0"/>
    </vehicle>
    <vehicle id="passenger121" type="passenger" depart="121.00">
        <route edges="D0C0 C0B0 B0A0 A0A1 A1A0"/>
    </vehicle>
    <vehicle id="passenger122" type="passenger" depart="122.00">
        <route edges="B1B0 B0C0 C0C1 C1D1 D1D0"/>
    </vehicle>
    <vehicle id="passenger123" type="passenger" depart="123.00">
        <route edges="D0C0 C0B0 B0A0"/>
    </vehicle>
    <vehicle id="passenger124" type="passenger" depart="124.00">
        <route edges="A0A1 A1B1 B1C1"/>
    </vehicle>
    <vehicle id="passenger125" type="passenger" depart="125.00">
        <route edges="D1C1 C1B1 B1B0"/>
    </vehicle>
    <vehicle id="passenger126" type="passenger" depart="126.00">
        <route edges="B0C0 C0C1 C1C0"/>
    </vehicle>
    <vehicle id="passenger127" type="passenger" depart="127.00">
        <route edges="B1C1 C1B1 B1B0 B0A0 A0A1"/>
    </vehicle>
    <vehicle id="passenger128" type="passenger" depart="128.00">
        <route edges="C1C0 C0B0 B0A0 A0A1"/>
    </vehicle>
    <vehicle id="passenger129" type="passenger" depart="129.00">
        <route edges="A1A0 A0A1 A1B1"/>
    </vehicle>
    <vehicle id="passenger130" type="passenger" depart="130.00">
        <route edges="A1B1 B1C1 C1D1"/>
    </vehicle>
    <vehicle id="passenger131" type="passenger" depart="131.00">
        <route edges="A0A1 A1B1 B1C1"/>
    </vehicle>
    <vehicle id="passenger132" type="passenger" depart="132.00">
        <route edges="D1C1 C1B1 B1B0"/>
    </vehicle>
    <vehicle id="passenger133" type="passenger" depart="133.00">
        <route edges="A1A0 A0B0 B0C0 C0B0"/>
    </vehicle>
    <vehicle id="passenger134" type="passenger" depart="134.00">
        <route edges="D0C0 C0D0 D0D1 D1D0"/>
    </vehicle>
    <vehicle id="passenger135" type="passenger" depart="135.00">
        <route edges="C1D1 D1C1 C1B1 B1A1 A1B1"/>
    </vehicle>
    <vehicle id="passenger136" type="passenger" depart="136.00">
        <route edges="D0C0 C0D0 D0D1 D1C1"/>
    </vehicle>
    <vehicle id="passenger137" type="passenger" depart="137.00">
        <route edges="A1A0 A0A1 A1B1 B1C1 C1C0"/>
    </vehicle>
    <vehicle id="passenger138" type="passenger" depart="138.00">
        <route edges="B1C1 C1B1 B1B0 B0A0"/>
    </vehicle>
    <vehicle id="passenger139" type="passenger" depart="139.00">
        <route edges="C1D1 D1D0 D0D1"/>
    </vehicle>
    <vehicle id="passenger140" type="passenger" depart="140.00">
        <route edges="C1C0 C0B0 B0A0 A0A1 A1A0"/>
    </vehicle>
    <vehicle id="passenger141" type="passenger" depart="141.00">
        <route edges="B0A0 A0B0 B0C0 C0D0 D0C0"/>
    </vehicle>
    <vehicle id="passenger142" type="passenger" depart="142.00">
        <route edges="B1B0 B0C0 C0C1"/>
    </vehicle>
    <vehicle id="passenger143" type="passenger" depart="143.00">
        <route edges="B0A0 A0B0 B0C0 C0C1 C1D1 D1D0"/>
    </vehicle>
    <vehicle id="passenger144" type="passenger" depart="144.00">
        <route edges="D1C1"/>
    </vehicle>
    <vehicle id="passenger145" type="passenger" depart="145.00">
        <route edges="B1A1 A1B1 B1C1"/>
    </vehicle>
    <vehicle id="passenger146" type="passenger" depart="146.00">
        <route edges="D1D0 D0D1"/>
    </vehicle>
    <vehicle id="passenger147" type="passenger" depart="147.00">
        <route edges="A0B0 B0C0 C0B0"/>
    </vehicle>
    <vehicle id="passenger148" type="passenger" depart="148.00">
        <route edges="B1C1 C1B1 B1A1"/>
    </vehicle>
    <vehicle id="passenger149" type="passenger" depart="149.00">
        <route edges="C0B0 B0B1 B1C1"/>
    </vehicle>
    <vehicle id="passenger150" type="passenger" depart="150.00">
        <route edges="C1D1 D1C1 C1C0 C0C1"/>
    </vehicle>
    <vehicle id="passenger151" type="passenger" depart="151.00">
        <route edges="A1B1 B1C1 C1C0"/>
    </vehicle>
    <vehicle id="passenger152" type="passenger" depart="152.00">
        <route edges="D1C1 C1B1 B1B0"/>
    </vehicle>
    <vehicle id="passenger153" type="passenger" depart="153.00">
        <route edges="C1D1 D1D0 D0D1"/>
    </vehicle>
    <vehicle id="passenger154" type="passenger" depart="154.00">
        <route edges="D0C0 C0B0 B0B1"/>
    </vehicle>
    <vehicle id="passenger155" type="passenger" depart="155.00">
        <route edges="B1A1 A1B1 B1C1 C1D1 D1C1"/>
    </vehicle>
    <vehicle id="passenger156" type="passenger" depart="156.00">
        <route edges="D1C1 C1B1 B1B0 B0A0 A0A1"/>
    </vehicle>
    <vehicle id="passenger157" type="passenger" depart="157.00">
        <route edges="D0C0"/>
    </vehicle>
    <vehicle id="passenger158" type="passenger" depart="158.00">
        <route edges="B1C1 C1B1 B1B0 B0A0 A0A1"/>
    </vehicle>
    <vehicle id="passenger159" type="passenger" depart="159.00">
        <route edges="C0B0 B0B1 B1A1"/>
    </vehicle>
    <vehicle id="passenger160" type="passenger" depart="160.00">
        <route edges="C1C0 C0D0 D0C0"/>
    </vehicle>
    <vehicle id="passenger161" type="passenger" depart="161.00">
        <route edges="C1D1 D1C1 C1B1 B1B0 B0A0 A0A1"/>
    </vehicle>
    <vehicle id="passenger162" type="passenger" depart="162.00">
        <route edges="B1B0 B0C0 C0C1 C1D1"/>
    </vehicle>
    <vehicle id="passenger163" type="passenger" depart="163.00">
        <route edges="B0B1 B1B0"/>
    </vehicle>
    <vehicle id="passenger164" type="passenger" depart="164.00">
        <route edges="D1C1 C1C0"/>
    </vehicle>
    <vehicle id="passenger165" type="passenger" depart="165.00">
        <route edges="D0D1 D1D0 D0C0 C0B0"/>
    </vehicle>
    <vehicle id="passenger166" type="passenger" depart="166.00">
        <route edges="B0B1 B1C1 C1D1 D1D0 D0D1"/>
    </vehicle>
    <vehicle id="passenger167" type="passenger" depart="167.00">
        <route edges="A0A1 A1B1 B1B0 B0B1"/>
    </vehicle>
    <vehicle id="passenger168" type="passenger" depart="168.00">
        <route edges="C0D0 D0D1 D1D0"/>
    </vehicle>
    <vehicle id="passenger169" type="passenger" depart="169.00">
        <route edges="B1C1 C1C0 C0B0"/>
    </vehicle>
    <vehicle id="passenger170" type="passenger" depart="170.00">
        <route edges="D0D1 D1D0 D0C0 C0B0 B0C0"/>
    </vehicle>
    <vehicle id="passenger171" type="passenger" depart="171.00">
        <route edges="B1B0 B0C0 C0D0 D0D1"/>
    </vehicle>
    <vehicle id="passenger172" type="passenger" depart="172.00">
        <route edges="B0C0 C0C1 C1C0"/>
    </vehicle>
    <vehicle id="passenger173" type="passenger" depart="173.00">
        <route edges="B0A0 A0B0 B0C0 C0C1 C1D1 D1D0"/>
    </vehicle>
    <vehicle id="passenger174" type="passenger" depart="174.00">
        <route edges="B1A1 A1B1 B1C1 C1C0 C0D0"/>
    </vehicle>
    <vehicle id="passenger175" type="passenger" depart="175.00">
        <route edges="B0B1 B1B0 B0A0 A0B0"/>
    </vehicle>
    <vehicle id="passenger176" type="passenger" depart="176.00">
        <route edges="B0A0 A0B0 B0B1 B1A1"/>
    </vehicle>
    <vehicle id="passenger177" type="passenger" depart="177.00">
        <route edges="A1B1 B1B0"/>
    </vehicle>
    <vehicle id="passenger178" type="passenger" depart="178.00">
        <route edges="C1B1 B1C1 C1D1 D1C1"/>
    </vehicle>
    <vehicle id="passenger179" type="passenger" depart="179.00">
        <route edges="C1C0 C0B0 B0C0"/>
    </vehicle>
    <vehicle id="passenger180" type="passenger" depart="180.00">
        <route edges="B0C0 C0B0 B0A0 A0A1"/>
    </vehicle>
    <vehicle id="passenger181" type="passenger" depart="181.00">
        <route edges="D1D0 D0C0 C0B0 B0B1 B1C1"/>
    </vehicle>
    <vehicle id="passenger182" type="passenger" depart="182.00">
        <route edges="A0A1 A1A0"/>
    </vehicle>
    <vehicle id="passenger183" type="passenger" depart="183.00">
        <route edges="B0B1 B1C1 C1C0 C0B0"/>
    </vehicle>
    <vehicle id="passenger184" type="passenger" depart="184.00">
        <route edges="B1C1 C1B1 B1B0 B0A0"/>
    </vehicle>
    <vehicle id="passenger185" type="passenger" depart="185.00">
        <route edges="B1B0 B0A0 A0B0"/>
    </vehicle>
    <vehicle id="passenger186" type="passenger" depart="186.00">
        <route edges="B0B1 B1A1 A1A0"/>
    </vehicle>
    <vehicle id="passenger187" type="passenger" depart="187.00">
        <route edges="D1C1 C1B1 B1B0 B0C0"/>
    </vehicle>
    <vehicle id="passenger188" type="passenger" depart="188.00">
        <route edges="D0C0 C0B0 B0C0"/>
    </vehicle>
    <vehicle id="passenger189" type="passenger" depart="189.00">
        <route edges="B1C1 C1B1 B1A1 A1B1"/>
    </vehicle>
    <vehicle id="passenger190" type="passenger" depart="190.00">
        <route edges="C0B0 B0A0 A0A1"/>
    </vehicle>
    <vehicle id="passenger191" type="passenger" depart="191.00">
        <route edges="A0A1 A1B1 B1B0 B0C0"/>
    </vehicle>
    <vehicle id="passenger192" type="passenger" depart="192.00">
        <route edges="A0A1 A1B1 B1C1 C1D1 D1C1"/>
    </vehicle>
    <vehicle id="passenger193" type="passenger" depart="193.00">
        <route edges="A1A0 A0B0"/>
    </vehicle>
    <vehicle id="passenger194" type="passenger" depart="194.00">
        <route edges="B0C0 C0C1 C1B1"/>
    </vehicle>
    <vehicle id="passenger195" type="passenger" depart="195.00">
        <route edges="C0C1 C1C0 C0B0"/>
    </vehicle>
    <vehicle id="passenger196" type="passenger" depart="196.00">
        <route edges="D1C1 C1B1 B1B0 B0A0 A0A1"/>
    </vehicle>
    <vehicle id="passenger197" type="passenger" depart="197.00">
        <route edges="C0B0 B0A0 A0A1 A1A0"/>
    </vehicle>
    <vehicle id="passenger198" type="passenger" depart="198.00">
        <route edges="C1B1 B1C1 C1C0 C0B0"/>
    </vehicle>
    <vehicle id="passenger199" type="passenger" depart="199.00">
        <route edges="A1A0 A0A1 A1B1 B1A1"/>
    </vehicle>
    <vehicle id="passenger200" type="passenger" depart="200.00">
        <route edges="A0A1 A1B1 B1C1 C1B1"/>
    </vehicle>
    <vehicle id="passenger201" type="passenger" depart="201.00">
        <route edges="B1A1 A1B1 B1C1"/>
    </vehicle>
    <vehicle id="passenger202" type="passenger" depart="202.00">
        <route edges="D0D1 D1D0 D0C0 C0B0 B0A0 A0B0"/>
    </vehicle>
    <vehicle id="passenger203" type="passenger" depart="203.00">
        <route edges="D1D0 D0C0 C0C1 C1C0"/>
    </vehicle>
    <vehicle id="passenger204" type="passenger" depart="204.00">
        <route edges="A0B0 B0A0 A0A1 A1B1"/>
    </vehicle>
    <vehicle id="passenger205" type="passenger" depart="205.00">
        <route edges="C1B1 B1C1 C1C0 C0B0"/>
    </vehicle>
    <vehicle id="passenger206" type="passenger" depart="206.00">
        <route edges="B0C0 C0B0 B0A0"/>
    </vehicle>
    <vehicle id="passenger207" type="passenger" depart="207.00">
        <route edges="B0C0 C0C1 C1D1 D1D0"/>
    </vehicle>
    <vehicle id="passenger208" type="passenger" depart="208.00">
        <route edges="D1D0 D0D1"/>
    </vehicle>
    <vehicle id="passenger209" type="passenger" depart="209.00">
        <route edges="D0C0 C0B0 B0B1 B1B0"/>
    </vehicle>
    <vehicle id="passenger210" type="passenger" depart="210.00">
        <route edges="D0D1 D1C1 C1C0"/>
    </vehicle>
    <vehicle id="passenger211" type="passenger" depart="211.00">
        <route edges="D1D0 D0C0 C0C1 C1D1"/>
    </vehicle>
    <vehicle id="passenger212" type="passenger" depart="212.00">
        <route edges="A1A0 A0B0 B0C0 C0D0"/>
    </vehicle>
    <vehicle id="passenger213" type="passenger" depart="213.00">
        <route edges="B1C1 C1B1 B1B0 B0C0"/>
    </vehicle>
    <vehicle id="passenger214" type="passenger" depart="214.00">
        <route edges="D0C0"/>
    </vehicle>
    <vehicle id="passenger215" type="passenger" depart="215.00">
        <route edges="D1D0 D0C0 C0B0 B0B1 B1A1"/>
    </vehicle>
    <vehicle id="passenger216" type="passenger" depart="216.00">
        <route edges="B0A0 A0B0"/>
    </vehicle>
    <vehicle id="passenger217" type="passenger" depart="217.00">
        <route edges="D1D0 D0C0 C0C1 C1C0"/>
    </vehicle>
    <vehicle id="passenger218" type="passenger" depart="218.00">
        <route edges="C1B1 B1B0 B0A0 A0B0"/>
    </vehicle>
    <vehicle id="passenger219" type="passenger" depart="219.00">
        <route edges="B1A1 A1B1 B1B0"/>
    </vehicle>
    <vehicle id="passenger220" type="passenger" depart="220.00">
        <route edges="A0A1 A1B1 B1A1"/>
    </vehicle>
    <vehicle id="passenger221" type="passenger" depart="221.00">
        <route edges="D1C1 C1D1 D1D0 D0C0"/>
    </vehicle>
    <vehicle id="passenger222" type="passenger" depart="222.00">
        <route edges="B1C1 C1B1 B1B0"/>
    </vehicle>
    <vehicle id="passenger223" type="passenger" depart="223.00">
        <route edges="C1B1 B1A1 A1B1"/>
    </vehicle>
    <vehicle id="passenger224" type="passenger" depart="224.00">
        <route edges="C1D1"/>
    </vehicle>
    <vehicle id="passenger225" type="passenger" depart="225.00">
        <route edges="B1A1 A1B1"/>
    </vehicle>
    <vehicle id="passenger226" type="passenger" depart="226.00">
        <route edges="A0B0 B0C0 C0C1 C1D1 D1D0"/>
    </vehicle>
    <vehicle id="passenger227" type="passenger" depart="227.00">
        <route edges="C0B0 B0C0 C0C1 C1B1"/>
    </vehicle>
    <vehicle id="passenger228" type="passenger" depart="228.00">
        <route edges="B0C0 C0D0 D0D1"/>
    </vehicle>
    <vehicle id="passenger229" type="passenger" depart="229.00">
        <route edges="A1A0 A0B0 B0A0"/>
    </vehicle>
    <vehicle id="passenger230" type="passenger" depart="230.00">
        <route edges="D0C0 C0C1 C1D1"/>
    </vehicle>
    <vehicle id="passenger231" type="passenger" depart="231.00">
        <route edges="A0A1 A1B1 B1C1 C1B1"/>
    </vehicle>
    <vehicle id="passenger232" type="passenger" depart="232.00">
        <route edges="D1C1 C1B1 B1B0 B0C0"/>
    </vehicle>
    <vehicle id="passenger233" type="passenger" depart="233.00">
        <route edges="C0B0 B0C0 C0D0 D0C0"/>
    </vehicle>
    <vehicle id="passenger234" type="passenger" depart="234.00">
        <route edges="B0A0 A0B0 B0C0 C0C1 C1B1"/>
    </vehicle>
    <vehicle id="passenger235" type="passenger" depart="235.00">
        <route edges="C0D0 D0C0 C0B0 B0A0 A0A1 A1A0"/>
    </vehicle>
    <vehicle id="passenger236" type="passenger" depart="236.00">
        <route edges="D0C0 C0B0 B0C0"/>
    </vehicle>
    <vehicle id="passenger237" type="passenger" depart="237.00">