<?xml version="1.0" encoding="UTF-8"?>
<!-- generated on 2021-05-02 13:14:04.725267 by $Id$
  options: -n map.net.xml -r emergency_routes.rou.xml -o emergency_trips.xml -b 20 -e 21 -p 100 <doubleminus>vehicle-class emergency <doubleminus>trip-attributes=color="255,255,255"
-->
<routes xmlns:xsi="http://www.w3.org/2001/XMLSchema-instance" xsi:noNamespaceSchemaLocation="http://sumo.dlr.de/xsd/routes_file.xsd">
    <vType id="emergency" vClass="emergency" color="255,255,255"/>
    <trip id="0" depart="20.00" from="A1B1" to="B1C1" type="emergency"/>
</routes>
