<?xml version="1.0" encoding="UTF-8"?>

<!-- generated on Sun May  2 13:14:04 2021 by Eclipse SUMO duarouter Version 1.1.0
<configuration xmlns:xsi="http://www.w3.org/2001/XMLSchema-instance" xsi:noNamespaceSchemaLocation="http://sumo.dlr.de/xsd/duarouterConfiguration.xsd">

    <input>
        <net-file value="map.net.xml"/>
        <route-files value="emergency_trips.xml"/>
    </input>

    <output>
        <output-file value="emergency_routes.rou.xml"/>
        <alternatives-output value="emergency_routes.rou.alt.xml"/>
    </output>

    <time>
        <begin value="20.0"/>
        <end value="21.0"/>
    </time>

    <report>
        <no-warnings value="true"/>
        <ignore-errors value="true"/>
        <no-step-log value="true"/>
    </report>

</configuration>
-->

<routes xmlns:xsi="http://www.w3.org/2001/XMLSchema-instance" xsi:noNamespaceSchemaLocation="http://sumo.dlr.de/xsd/routes_file.xsd">
    <vType id="emergency" vClass="emergency" color="white"/>
    <vehicle id="emergency0" type="emergency" depart="20.00">
        <route edges="A1B1 B1C1"/>
    </vehicle>
</routes>
