<?xml version="1.0" encoding="UTF-8"?>

<!-- generated on Sat May  1 15:28:41 2021 by Eclipse SUMO duarouter Version 1.1.0
<configuration xmlns:xsi="http://www.w3.org/2001/XMLSchema-instance" xsi:noNamespaceSchemaLocation="http://sumo.dlr.de/xsd/duarouterConfiguration.xsd">

    <input>
        <net-file value="map.net.xml"/>
        <route-files value="emergency_trips.xml"/>
    </input>

    <output>
        <output-file value="emergency_routes.rou.xml"/>
        <alternatives-output value="emergency_routes.rou.alt.xml"/>
    </output>

    <time>
        <begin value="0"/>
        <end value="10.0"/>
    </time>

    <report>
        <no-warnings value="true"/>
        <ignore-errors value="true"/>
        <no-step-log value="true"/>
    </report>

</configuration>
-->

<routes xmlns:xsi="http://www.w3.org/2001/XMLSchema-instance" xsi:noNamespaceSchemaLocation="http://sumo.dlr.de/xsd/routes_file.xsd">
    <vType id="emergency" vClass="emergency" color="white"/>
    <vehicle id="emergency0" type="emergency" depart="0.00">
        <route edges="B2A2 A2B2 B2B1 B1B2"/>
    </vehicle>
</routes>
