<?xml version="1.0" encoding="UTF-8"?>

<!-- generated on Thu 13 May 2021 01:01:11 PM -03 by Eclipse SUMO netedit Version 1.1.0
<configuration xmlns:xsi="http://www.w3.org/2001/XMLSchema-instance" xsi:noNamespaceSchemaLocation="http://sumo.dlr.de/xsd/netconvertConfiguration.xsd">

    <input>
        <sumo-net-file value="contrib/ndn4ivc/traces/highway/map.net.xml"/>
    </input>

    <output>
        <output-file value="contrib/ndn4ivc/traces/highway/map.net.xml"/>
    </output>

    <processing>
        <geometry.max-grade.fix value="false"/>
        <offset.disable-normalization value="true"/>
        <lefthand value="false"/>
    </processing>

    <junctions>
        <no-turnarounds value="true"/>
        <junctions.corner-detail value="5"/>
        <junctions.limit-turn-speed value="5.5"/>
        <rectangular-lane-cut value="false"/>
    </junctions>

    <pedestrian>
        <walkingareas value="false"/>
    </pedestrian>

    <visualisation>
        <registry-viewport value="true"/>
    </visualisation>

</configuration>
-->

<net version="1.1" junctionCornerDetail="5" limitTurnSpeed="5.50" xmlns:xsi="http://www.w3.org/2001/XMLSchema-instance" xsi:noNamespaceSchemaLocation="http://sumo.dlr.de/xsd/net_file.xsd">

    <location netOffset="0.00,0.00" convBoundary="-115.18,99.96,200.23,100.06" origBoundary="0.00,0.00,200.00,200.00" projParameter="!"/>

    <edge id=":B1_0" function="internal">
        <lane id=":B1_0_0" index="0" speed="13.89" length="0.30" shape="189.54,95.16 189.84,95.16"/>
        <lane id=":B1_0_1" index="1" speed="13.89" length="0.30" shape="189.54,98.36 189.83,98.36"/>
    </edge>

    <edge id="A1B1" from="A1" to="B1" priority="-1" length="250.18">
        <lane id="A1B1_0" index="0" speed="13.89" length="250.18" shape="-115.18,95.26 189.54,95.16"/>
        <lane id="A1B1_1" index="1" speed="13.89" length="250.18" shape="-115.18,98.46 189.54,98.36"/>
    </edge>
    <edge id="B1C1" from="B1" to="C1" priority="-1">
        <lane id="B1C1_0" index="0" speed="13.89" length="10.41" shape="189.84,95.16 200.25,95.20"/>
        <lane id="B1C1_1" index="1" speed="13.89" length="10.41" shape="189.83,98.36 200.24,98.40"/>
    </edge>

    <junction id="A1" type="dead_end" x="-115.18" y="100.06" incLanes="" intLanes="" shape="-115.18,100.06 -115.18,93.66"/>
    <junction id="B1" type="priority" x="189.68" y="99.96" incLanes="A1B1_0 A1B1_1" intLanes=":B1_0_0 :B1_0_1" shape="189.82,99.96 189.85,93.56 189.53,93.56 189.54,99.96">
        <request index="0" response="00" foes="00" cont="0"/>
        <request index="1" response="00" foes="00" cont="0"/>
    </junction>
    <junction id="C1" type="dead_end" x="200.23" y="100.00" incLanes="B1C1_0 B1C1_1" intLanes="" shape="200.25,93.60 200.23,100.00"/>

    <connection from="A1B1" to="B1C1" fromLane="0" toLane="0" via=":B1_0_0" dir="s" state="M"/>
    <connection from="A1B1" to="B1C1" fromLane="1" toLane="1" via=":B1_0_1" dir="s" state="M"/>

    <connection from=":B1_0" to="B1C1" fromLane="0" toLane="0" dir="s" state="M"/>
    <connection from=":B1_0" to="B1C1" fromLane="1" toLane="1" dir="s" state="M"/>

</net>
