<?xml version="1.0" encoding="UTF-8"?>
<!-- generated on 2021-05-13 13:07:04.750654 by $Id$
  options: -n map.net.xml -r passenger_routes.rou.xml -o passenger_trips.xml -b 0 -e 300 -p 0.5 <doubleminus>vehicle-class passenger <doubleminus>trip-attributes=departLane="best" departSpeed="max" maxSpeed="11.11"
-->
<routes xmlns:xsi="http://www.w3.org/2001/XMLSchema-instance" xsi:noNamespaceSchemaLocation="http://sumo.dlr.de/xsd/routes_file.xsd">
    <vType id="passenger" vClass="passenger" maxSpeed="11.11"/>
    <trip id="0" depart="0.00" from="A1B1" to="B1C1" departLane="best" departSpeed="max" type="passenger"/>
    <trip id="1" depart="0.50" from="A1B1" to="B1C1" departLane="best" departSpeed="max" type="passenger"/>
    <trip id="2" depart="1.00" from="A1B1" to="B1C1" departLane="best" departSpeed="max" type="passenger"/>
    <trip id="3" depart="1.50" from="A1B1" to="B1C1" departLane="best" departSpeed="max" type="passenger"/>
    <trip id="4" depart="2.00" from="A1B1" to="B1C1" departLane="best" departSpeed="max" type="passenger"/>
    <trip id="5" depart="2.50" from="A1B1" to="B1C1" departLane="best" departSpeed="max" type="passenger"/>
    <trip id="6" depart="3.00" from="A1B1" to="B1C1" departLane="best" departSpeed="max" type="passenger"/>
    <trip id="7" depart="3.50" from="A1B1" to="B1C1" departLane="best" departSpeed="max" type="passenger"/>
    <trip id="8" depart="4.00" from="A1B1" to="B1C1" departLane="best" departSpeed="max" type="passenger"/>
    <trip id="9" depart="4.50" from="A1B1" to="B1C1" departLane="best" departSpeed="max" type="passenger"/>
    <trip id="10" depart="5.00" from="A1B1" to="B1C1" departLane="best" departSpeed="max" type="passenger"/>
    <trip id="11" depart="5.50" from="A1B1" to="B1C1" departLane="best" departSpeed="max" type="passenger"/>
    <trip id="12" depart="6.00" from="A1B1" to="B1C1" departLane="best" departSpeed="max" type="passenger"/>
    <trip id="13" depart="6.50" from="A1B1" to="B1C1" departLane="best" departSpeed="max" type="passenger"/>
    <trip id="14" depart="7.00" from="A1B1" to="B1C1" departLane="best" departSpeed="max" type="passenger"/>
    <trip id="15" depart="7.50" from="A1B1" to="B1C1" departLane="best" departSpeed="max" type="passenger"/>
    <trip id="16" depart="8.00" from="A1B1" to="B1C1" departLane="best" departSpeed="max" type="passenger"/>
    <trip id="17" depart="8.50" from="A1B1" to="B1C1" departLane="best" departSpeed="max" type="passenger"/>
    <trip id="18" depart="9.00" from="A1B1" to="B1C1" departLane="best" departSpeed="max" type="passenger"/>
    <trip id="19" depart="9.50" from="A1B1" to="B1C1" departLane="best" departSpeed="max" type="passenger"/>
    <trip id="20" depart="10.00" from="A1B1" to="B1C1" departLane="best" departSpeed="max" type="passenger"/>
    <trip id="21" depart="10.50" from="A1B1" to="B1C1" departLane="best" departSpeed="max" type="passenger"/>
    <trip id="22" depart="11.00" from="A1B1" to="B1C1" departLane="best" departSpeed="max" type="passenger"/>
    <trip id="23" depart="11.50" from="A1B1" to="B1C1" departLane="best" departSpeed="max" type="passenger"/>
    <trip id="24" depart="12.00" from="A1B1" to="B1C1" departLane="best" departSpeed="max" type="passenger"/>
    <trip id="25" depart="12.50" from="A1B1" to="B1C1" departLane="best" departSpeed="max" type="passenger"/>
    <trip id="26" depart="13.00" from="A1B1" to="B1C1" departLane="best" departSpeed="max" type="passenger"/>
    <trip id="27" depart="13.50" from="A1B1" to="B1C1" departLane="best" departSpeed="max" type="passenger"/>
    <trip id="28" depart="14.00" from="A1B1" to="B1C1" departLane="best" departSpeed="max" type="passenger"/>
    <trip id="29" depart="14.50" from="A1B1" to="B1C1" departLane="best" departSpeed="max" type="passenger"/>
    <trip id="30" depart="15.00" from="A1B1" to="B1C1" departLane="best" departSpeed="max" type="passenger"/>
    <trip id="31" depart="15.50" from="A1B1" to="B1C1" departLane="best" departSpeed="max" type="passenger"/>
    <trip id="32" depart="16.00" from="A1B1" to="B1C1" departLane="best" departSpeed="max" type="passenger"/>
    <trip id="33" depart="16.50" from="A1B1" to="B1C1" departLane="best" departSpeed="max" type="passenger"/>
    <trip id="34" depart="17.00" from="A1B1" to="B1C1" departLane="best" departSpeed="max" type="passenger"/>
    <trip id="35" depart="17.50" from="A1B1" to="B1C1" departLane="best" departSpeed="max" type="passenger"/>
    <trip id="36" depart="18.00" from="A1B1" to="B1C1" departLane="best" departSpeed="max" type="passenger"/>
    <trip id="37" depart="18.50" from="A1B1" to="B1C1" departLane="best" departSpeed="max" type="passenger"/>
    <trip id="38" depart="19.00" from="A1B1" to="B1C1" departLane="best" departSpeed="max" type="passenger"/>
    <trip id="39" depart="19.50" from="A1B1" to="B1C1" departLane="best" departSpeed="max" type="passenger"/>
    <trip id="40" depart="20.00" from="A1B1" to="B1C1" departLane="best" departSpeed="max" type="passenger"/>
    <trip id="41" depart="20.50" from="A1B1" to="B1C1" departLane="best" departSpeed="max" type="passenger"/>
    <trip id="42" depart="21.00" from="A1B1" to="B1C1" departLane="best" departSpeed="max" type="passenger"/>
    <trip id="43" depart="21.50" from="A1B1" to="B1C1" departLane="best" departSpeed="max" type="passenger"/>
    <trip id="44" depart="22.00" from="A1B1" to="B1C1" departLane="best" departSpeed="max" type="passenger"/>
    <trip id="45" depart="22.50" from="A1B1" to="B1C1" departLane="best" departSpeed="max" type="passenger"/>
    <trip id="46" depart="23.00" from="A1B1" to="B1C1" departLane="best" departSpeed="max" type="passenger"/>
    <trip id="47" depart="23.50" from="A1B1" to="B1C1" departLane="best" departSpeed="max" type="passenger"/>
    <trip id="48" depart="24.00" from="A1B1" to="B1C1" departLane="best" departSpeed="max" type="passenger"/>
    <trip id="49" depart="24.50" from="A1B1" to="B1C1" departLane="best" departSpeed="max" type="passenger"/>
    <trip id="50" depart="25.00" from="A1B1" to="B1C1" departLane="best" departSpeed="max" type="passenger"/>
    <trip id="51" depart="25.50" from="A1B1" to="B1C1" departLane="best" departSpeed="max" type="passenger"/>
    <trip id="52" depart="26.00" from="A1B1" to="B1C1" departLane="best" departSpeed="max" type="passenger"/>
    <trip id="53" depart="26.50" from="A1B1" to="B1C1" departLane="best" departSpeed="max" type="passenger"/>
    <trip id="54" depart="27.00" from="A1B1" to="B1C1" departLane="best" departSpeed="max" type="passenger"/>
    <trip id="55" depart="27.50" from="A1B1" to="B1C1" departLane="best" departSpeed="max" type="passenger"/>
    <trip id="56" depart="28.00" from="A1B1" to="B1C1" departLane="best" departSpeed="max" type="passenger"/>
    <trip id="57" depart="28.50" from="A1B1" to="B1C1" departLane="best" departSpeed="max" type="passenger"/>
    <trip id="58" depart="29.00" from="A1B1" to="B1C1" departLane="best" departSpeed="max" type="passenger"/>
    <trip id="59" depart="29.50" from="A1B1" to="B1C1" departLane="best" departSpeed="max" type="passenger"/>
    <trip id="60" depart="30.00" from="A1B1" to="B1C1" departLane="best" departSpeed="max" type="passenger"/>
    <trip id="61" depart="30.50" from="A1B1" to="B1C1" departLane="best" departSpeed="max" type="passenger"/>
    <trip id="62" depart="31.00" from="A1B1" to="B1C1" departLane="best" departSpeed="max" type="passenger"/>
    <trip id="63" depart="31.50" from="A1B1" to="B1C1" departLane="best" departSpeed="max" type="passenger"/>
    <trip id="64" depart="32.00" from="A1B1" to="B1C1" departLane="best" departSpeed="max" type="passenger"/>
    <trip id="65" depart="32.50" from="A1B1" to="B1C1" departLane="best" departSpeed="max" type="passenger"/>
    <trip id="66" depart="33.00" from="A1B1" to="B1C1" departLane="best" departSpeed="max" type="passenger"/>
    <trip id="67" depart="33.50" from="A1B1" to="B1C1" departLane="best" departSpeed="max" type="passenger"/>
    <trip id="68" depart="34.00" from="A1B1" to="B1C1" departLane="best" departSpeed="max" type="passenger"/>
    <trip id="69" depart="34.50" from="A1B1" to="B1C1" departLane="best" departSpeed="max" type="passenger"/>
    <trip id="70" depart="35.00" from="A1B1" to="B1C1" departLane="best" departSpeed="max" type="passenger"/>
    <trip id="71" depart="35.50" from="A1B1" to="B1C1" departLane="best" departSpeed="max" type="passenger"/>
    <trip id="72" depart="36.00" from="A1B1" to="B1C1" departLane="best" departSpeed="max" type="passenger"/>
    <trip id="73" depart="36.50" from="A1B1" to="B1C1" departLane="best" departSpeed="max" type="passenger"/>
    <trip id="74" depart="37.00" from="A1B1" to="B1C1" departLane="best" departSpeed="max" type="passenger"/>
    <trip id="75" depart="37.50" from="A1B1" to="B1C1" departLane="best" departSpeed="max" type="passenger"/>
    <trip id="76" depart="38.00" from="A1B1" to="B1C1" departLane="best" departSpeed="max" type="passenger"/>
    <trip id="77" depart="38.50" from="A1B1" to="B1C1" departLane="best" departSpeed="max" type="passenger"/>
    <trip id="78" depart="39.00" from="A1B1" to="B1C1" departLane="best" departSpeed="max" type="passenger"/>
    <trip id="79" depart="39.50" from="A1B1" to="B1C1" departLane="best" departSpeed="max" type="passenger"/>
    <trip id="80" depart="40.00" from="A1B1" to="B1C1" departLane="best" departSpeed="max" type="passenger"/>
    <trip id="81" depart="40.50" from="A1B1" to="B1C1" departLane="best" departSpeed="max" type="passenger"/>
    <trip id="82" depart="41.00" from="A1B1" to="B1C1" departLane="best" departSpeed="max" type="passenger"/>
    <trip id="83" depart="41.50" from="A1B1" to="B1C1" departLane="best" departSpeed="max" type="passenger"/>
    <trip id="84" depart="42.00" from="A1B1" to="B1C1" departLane="best" departSpeed="max" type="passenger"/>
    <trip id="85" depart="42.50" from="A1B1" to="B1C1" departLane="best" departSpeed="max" type="passenger"/>
    <trip id="86" depart="43.00" from="A1B1" to="B1C1" departLane="best" departSpeed="max" type="passenger"/>
    <trip id="87" depart="43.50" from="A1B1" to="B1C1" departLane="best" departSpeed="max" type="passenger"/>
    <trip id="88" depart="44.00" from="A1B1" to="B1C1" departLane="best" departSpeed="max" type="passenger"/>
    <trip id="89" depart="44.50" from="A1B1" to="B1C1" departLane="best" departSpeed="max" type="passenger"/>
    <trip id="90" depart="45.00" from="A1B1" to="B1C1" departLane="best" departSpeed="max" type="passenger"/>
    <trip id="91" depart="45.50" from="A1B1" to="B1C1" departLane="best" departSpeed="max" type="passenger"/>
    <trip id="92" depart="46.00" from="A1B1" to="B1C1" departLane="best" departSpeed="max" type="passenger"/>
    <trip id="93" depart="46.50" from="A1B1" to="B1C1" departLane="best" departSpeed="max" type="passenger"/>
    <trip id="94" depart="47.00" from="A1B1" to="B1C1" departLane="best" departSpeed="max" type="passenger"/>
    <trip id="95" depart="47.50" from="A1B1" to="B1C1" departLane="best" departSpeed="max" type="passenger"/>
    <trip id="96" depart="48.00" from="A1B1" to="B1C1" departLane="best" departSpeed="max" type="passenger"/>
    <trip id="97" depart="48.50" from="A1B1" to="B1C1" departLane="best" departSpeed="max" type="passenger"/>
    <trip id="98" depart="49.00" from="A1B1" to="B1C1" departLane="best" departSpeed="max" type="passenger"/>
    <trip id="99" depart="49.50" from="A1B1" to="B1C1" departLane="best" departSpeed="max" type="passenger"/>
    <trip id="100" depart="50.00" from="A1B1" to="B1C1" departLane="best" departSpeed="max" type="passenger"/>
    <trip id="101" depart="50.50" from="A1B1" to="B1C1" departLane="best" departSpeed="max" type="passenger"/>
    <trip id="102" depart="51.00" from="A1B1" to="B1C1" departLane="best" departSpeed="max" type="passenger"/>
    <trip id="103" depart="51.50" from="A1B1" to="B1C1" departLane="best" departSpeed="max" type="passenger"/>
    <trip id="104" depart="52.00" from="A1B1" to="B1C1" departLane="best" departSpeed="max" type="passenger"/>
    <trip id="105" depart="52.50" from="A1B1" to="B1C1" departLane="best" departSpeed="max" type="passenger"/>
    <trip id="106" depart="53.00" from="A1B1" to="B1C1" departLane="best" departSpeed="max" type="passenger"/>
    <trip id="107" depart="53.50" from="A1B1" to="B1C1" departLane="best" departSpeed="max" type="passenger"/>
    <trip id="108" depart="54.00" from="A1B1" to="B1C1" departLane="best" departSpeed="max" type="passenger"/>
    <trip id="109" depart="54.50" from="A1B1" to="B1C1" departLane="best" departSpeed="max" type="passenger"/>
    <trip id="110" depart="55.00" from="A1B1" to="B1C1" departLane="best" departSpeed="max" type="passenger"/>
    <trip id="111" depart="55.50" from="A1B1" to="B1C1" departLane="best" departSpeed="max" type="passenger"/>
    <trip id="112" depart="56.00" from="A1B1" to="B1C1" departLane="best" departSpeed="max" type="passenger"/>
    <trip id="113" depart="56.50" from="A1B1" to="B1C1" departLane="best" departSpeed="max" type="passenger"/>
    <trip id="114" depart="57.00" from="A1B1" to="B1C1" departLane="best" departSpeed="max" type="passenger"/>
    <trip id="115" depart="57.50" from="A1B1" to="B1C1" departLane="best" departSpeed="max" type="passenger"/>
    <trip id="116" depart="58.00" from="A1B1" to="B1C1" departLane="best" departSpeed="max" type="passenger"/>
    <trip id="117" depart="58.50" from="A1B1" to="B1C1" departLane="best" departSpeed="max" type="passenger"/>
    <trip id="118" depart="59.00" from="A1B1" to="B1C1" departLane="best" departSpeed="max" type="passenger"/>
    <trip id="119" depart="59.50" from="A1B1" to="B1C1" departLane="best" departSpeed="max" type="passenger"/>
    <trip id="120" depart="60.00" from="A1B1" to="B1C1" departLane="best" departSpeed="max" type="passenger"/>
    <trip id="121" depart="60.50" from="A1B1" to="B1C1" departLane="best" departSpeed="max" type="passenger"/>
    <trip id="122" depart="61.00" from="A1B1" to="B1C1" departLane="best" departSpeed="max" type="passenger"/>
    <trip id="123" depart="61.50" from="A1B1" to="B1C1" departLane="best" departSpeed="max" type="passenger"/>
    <trip id="124" depart="62.00" from="A1B1" to="B1C1" departLane="best" departSpeed="max" type="passenger"/>
    <trip id="125" depart="62.50" from="A1B1" to="B1C1" departLane="best" departSpeed="max" type="passenger"/>
    <trip id="126" depart="63.00" from="A1B1" to="B1C1" departLane="best" departSpeed="max" type="passenger"/>
    <trip id="127" depart="63.50" from="A1B1" to="B1C1" departLane="best" departSpeed="max" type="passenger"/>
    <trip id="128" depart="64.00" from="A1B1" to="B1C1" departLane="best" departSpeed="max" type="passenger"/>
    <trip id="129" depart="64.50" from="A1B1" to="B1C1" departLane="best" departSpeed="max" type="passenger"/>
    <trip id="130" depart="65.00" from="A1B1" to="B1C1" departLane="best" departSpeed="max" type="passenger"/>
    <trip id="131" depart="65.50" from="A1B1" to="B1C1" departLane="best" departSpeed="max" type="passenger"/>
    <trip id="132" depart="66.00" from="A1B1" to="B1C1" departLane="best" departSpeed="max" type="passenger"/>
    <trip id="133" depart="66.50" from="A1B1" to="B1C1" departLane="best" departSpeed="max" type="passenger"/>
    <trip id="134" depart="67.00" from="A1B1" to="B1C1" departLane="best" departSpeed="max" type="passenger"/>
    <trip id="135" depart="67.50" from="A1B1" to="B1C1" departLane="best" departSpeed="max" type="passenger"/>
    <trip id="136" depart="68.00" from="A1B1" to="B1C1" departLane="best" departSpeed="max" type="passenger"/>
    <trip id="137" depart="68.50" from="A1B1" to="B1C1" departLane="best" departSpeed="max" type="passenger"/>
    <trip id="138" depart="69.00" from="A1B1" to="B1C1" departLane="best" departSpeed="max" type="passenger"/>
    <trip id="139" depart="69.50" from="A1B1" to="B1C1" departLane="best" departSpeed="max" type="passenger"/>
    <trip id="140" depart="70.00" from="A1B1" to="B1C1" departLane="best" departSpeed="max" type="passenger"/>
    <trip id="141" depart="70.50" from="A1B1" to="B1C1" departLane="best" departSpeed="max" type="passenger"/>
    <trip id="142" depart="71.00" from="A1B1" to="B1C1" departLane="best" departSpeed="max" type="passenger"/>
    <trip id="143" depart="71.50" from="A1B1" to="B1C1" departLane="best" departSpeed="max" type="passenger"/>
    <trip id="144" depart="72.00" from="A1B1" to="B1C1" departLane="best" departSpeed="max" type="passenger"/>
    <trip id="145" depart="72.50" from="A1B1" to="B1C1" departLane="best" departSpeed="max" type="passenger"/>
    <trip id="146" depart="73.00" from="A1B1" to="B1C1" departLane="best" departSpeed="max" type="passenger"/>
    <trip id="147" depart="73.50" from="A1B1" to="B1C1" departLane="best" departSpeed="max" type="passenger"/>
    <trip id="148" depart="74.00" from="A1B1" to="B1C1" departLane="best" departSpeed="max" type="passenger"/>
    <trip id="149" depart="74.50" from="A1B1" to="B1C1" departLane="best" departSpeed="max" type="passenger"/>
    <trip id="150" depart="75.00" from="A1B1" to="B1C1" departLane="best" departSpeed="max" type="passenger"/>
    <trip id="151" depart="75.50" from="A1B1" to="B1C1" departLane="best" departSpeed="max" type="passenger"/>
    <trip id="152" depart="76.00" from="A1B1" to="B1C1" departLane="best" departSpeed="max" type="passenger"/>
    <trip id="153" depart="76.50" from="A1B1" to="B1C1" departLane="best" departSpeed="max" type="passenger"/>
    <trip id="154" depart="77.00" from="A1B1" to="B1C1" departLane="best" departSpeed="max" type="passenger"/>
    <trip id="155" depart="77.50" from="A1B1" to="B1C1" departLane="best" departSpeed="max" type="passenger"/>
    <trip id="156" depart="78.00" from="A1B1" to="B1C1" departLane="best" departSpeed="max" type="passenger"/>
    <trip id="157" depart="78.50" from="A1B1" to="B1C1" departLane="best" departSpeed="max" type="passenger"/>
    <trip id="158" depart="79.00" from="A1B1" to="B1C1" departLane="best" departSpeed="max" type="passenger"/>
    <trip id="159" depart="79.50" from="A1B1" to="B1C1" departLane="best" departSpeed="max" type="passenger"/>
    <trip id="160" depart="80.00" from="A1B1" to="B1C1" departLane="best" departSpeed="max" type="passenger"/>
    <trip id="161" depart="80.50" from="A1B1" to="B1C1" departLane="best" departSpeed="max" type="passenger"/>
    <trip id="162" depart="81.00" from="A1B1" to="B1C1" departLane="best" departSpeed="max" type="passenger"/>
    <trip id="163" depart="81.50" from="A1B1" to="B1C1" departLane="best" departSpeed="max" type="passenger"/>
    <trip id="164" depart="82.00" from="A1B1" to="B1C1" departLane="best" departSpeed="max" type="passenger"/>
    <trip id="165" depart="82.50" from="A1B1" to="B1C1" departLane="best" departSpeed="max" type="passenger"/>
    <trip id="166" depart="83.00" from="A1B1" to="B1C1" departLane="best" departSpeed="max" type="passenger"/>
    <trip id="167" depart="83.50" from="A1B1" to="B1C1" departLane="best" departSpeed="max" type="passenger"/>
    <trip id="168" depart="84.00" from="A1B1" to="B1C1" departLane="best" departSpeed="max" type="passenger"/>
    <trip id="169" depart="84.50" from="A1B1" to="B1C1" departLane="best" departSpeed="max" type="passenger"/>
    <trip id="170" depart="85.00" from="A1B1" to="B1C1" departLane="best" departSpeed="max" type="passenger"/>
    <trip id="171" depart="85.50" from="A1B1" to="B1C1" departLane="best" departSpeed="max" type="passenger"/>
    <trip id="172" depart="86.00" from="A1B1" to="B1C1" departLane="best" departSpeed="max" type="passenger"/>
    <trip id="173" depart="86.50" from="A1B1" to="B1C1" departLane="best" departSpeed="max" type="passenger"/>
    <trip id="174" depart="87.00" from="A1B1" to="B1C1" departLane="best" departSpeed="max" type="passenger"/>
    <trip id="175" depart="87.50" from="A1B1" to="B1C1" departLane="best" departSpeed="max" type="passenger"/>
    <trip id="176" depart="88.00" from="A1B1" to="B1C1" departLane="best" departSpeed="max" type="passenger"/>
    <trip id="177" depart="88.50" from="A1B1" to="B1C1" departLane="best" departSpeed="max" type="passenger"/>
    <trip id="178" depart="89.00" from="A1B1" to="B1C1" departLane="best" departSpeed="max" type="passenger"/>
    <trip id="179" depart="89.50" from="A1B1" to="B1C1" departLane="best" departSpeed="max" type="passenger"/>
    <trip id="180" depart="90.00" from="A1B1" to="B1C1" departLane="best" departSpeed="max" type="passenger"/>
    <trip id="181" depart="90.50" from="A1B1" to="B1C1" departLane="best" departSpeed="max" type="passenger"/>
    <trip id="182" depart="91.00" from="A1B1" to="B1C1" departLane="best" departSpeed="max" type="passenger"/>
    <trip id="183" depart="91.50" from="A1B1" to="B1C1" departLane="best" departSpeed="max" type="passenger"/>
    <trip id="184" depart="92.00" from="A1B1" to="B1C1" departLane="best" departSpeed="max" type="passenger"/>
    <trip id="185" depart="92.50" from="A1B1" to="B1C1" departLane="best" departSpeed="max" type="passenger"/>
    <trip id="186" depart="93.00" from="A1B1" to="B1C1" departLane="best" departSpeed="max" type="passenger"/>
    <trip id="187" depart="93.50" from="A1B1" to="B1C1" departLane="best" departSpeed="max" type="passenger"/>
    <trip id="188" depart="94.00" from="A1B1" to="B1C1" departLane="best" departSpeed="max" type="passenger"/>
    <trip id="189" depart="94.50" from="A1B1" to="B1C1" departLane="best" departSpeed="max" type="passenger"/>
    <trip id="190" depart="95.00" from="A1B1" to="B1C1" departLane="best" departSpeed="max" type="passenger"/>
    <trip id="191" depart="95.50" from="A1B1" to="B1C1" departLane="best" departSpeed="max" type="passenger"/>
    <trip id="192" depart="96.00" from="A1B1" to="B1C1" departLane="best" departSpeed="max" type="passenger"/>
    <trip id="193" depart="96.50" from="A1B1" to="B1C1" departLane="best" departSpeed="max" type="passenger"/>
    <trip id="194" depart="97.00" from="A1B1" to="B1C1" departLane="best" departSpeed="max" type="passenger"/>
    <trip id="195" depart="97.50" from="A1B1" to="B1C1" departLane="best" departSpeed="max" type="passenger"/>
    <trip id="196" depart="98.00" from="A1B1" to="B1C1" departLane="best" departSpeed="max" type="passenger"/>
    <trip id="197" depart="98.50" from="A1B1" to="B1C1" departLane="best" departSpeed="max" type="passenger"/>
    <trip id="198" depart="99.00" from="A1B1" to="B1C1" departLane="best" departSpeed="max" type="passenger"/>
    <trip id="199" depart="99.50" from="A1B1" to="B1C1" departLane="best" departSpeed="max" type="passenger"/>
    <trip id="200" depart="100.00" from="A1B1" to="B1C1" departLane="best" departSpeed="max" type="passenger"/>
    <trip id="201" depart="100.50" from="A1B1" to="B1C1" departLane="best" departSpeed="max" type="passenger"/>
    <trip id="202" depart="101.00" from="A1B1" to="B1C1" departLane="best" departSpeed="max" type="passenger"/>
    <trip id="203" depart="101.50" from="A1B1" to="B1C1" departLane="best" departSpeed="max" type="passenger"/>
    <trip id="204" depart="102.00" from="A1B1" to="B1C1" departLane="best" departSpeed="max" type="passenger"/>
    <trip id="205" depart="102.50" from="A1B1" to="B1C1" departLane="best" departSpeed="max" type="passenger"/>
    <trip id="206" depart="103.00" from="A1B1" to="B1C1" departLane="best" departSpeed="max" type="passenger"/>
    <trip id="207" depart="103.50" from="A1B1" to="B1C1" departLane="best" departSpeed="max" type="passenger"/>
    <trip id="208" depart="104.00" from="A1B1" to="B1C1" departLane="best" departSpeed="max" type="passenger"/>
    <trip id="209" depart="104.50" from="A1B1" to="B1C1" departLane="best" departSpeed="max" type="passenger"/>
    <trip id="210" depart="105.00" from="A1B1" to="B1C1" departLane="best" departSpeed="max" type="passenger"/>
    <trip id="211" depart="105.50" from="A1B1" to="B1C1" departLane="best" departSpeed="max" type="passenger"/>
    <trip id="212" depart="106.00" from="A1B1" to="B1C1" departLane="best" departSpeed="max" type="passenger"/>
    <trip id="213" depart="106.50" from="A1B1" to="B1C1" departLane="best" departSpeed="max" type="passenger"/>
    <trip id="214" depart="107.00" from="A1B1" to="B1C1" departLane="best" departSpeed="max" type="passenger"/>
    <trip id="215" depart="107.50" from="A1B1" to="B1C1" departLane="best" departSpeed="max" type="passenger"/>
    <trip id="216" depart="108.00" from="A1B1" to="B1C1" departLane="best" departSpeed="max" type="passenger"/>
    <trip id="217" depart="108.50" from="A1B1" to="B1C1" departLane="best" departSpeed="max" type="passenger"/>
    <trip id="218" depart="109.00" from="A1B1" to="B1C1" departLane="best" departSpeed="max" type="passenger"/>
    <trip id="219" depart="109.50" from="A1B1" to="B1C1" departLane="best" departSpeed="max" type="passenger"/>
    <trip id="220" depart="110.00" from="A1B1" to="B1C1" departLane="best" departSpeed="max" type="passenger"/>
    <trip id="221" depart="110.50" from="A1B1" to="B1C1" departLane="best" departSpeed="max" type="passenger"/>
    <trip id="222" depart="111.00" from="A1B1" to="B1C1" departLane="best" departSpeed="max" type="passenger"/>
    <trip id="223" depart="111.50" from="A1B1" to="B1C1" departLane="best" departSpeed="max" type="passenger"/>
    <trip id="224" depart="112.00" from="A1B1" to="B1C1" departLane="best" departSpeed="max" type="passenger"/>
    <trip id="225" depart="112.50" from="A1B1" to="B1C1" departLane="best" departSpeed="max" type="passenger"/>
    <trip id="226" depart="113.00" from="A1B1" to="B1C1" departLane="best" departSpeed="max" type="passenger"/>
    <trip id="227" depart="113.50" from="A1B1" to="B1C1" departLane="best" departSpeed="max" type="passenger"/>
    <trip id="228" depart="114.00" from="A1B1" to="B1C1" departLane="best" departSpeed="max" type="passenger"/>
    <trip id="229" depart="114.50" from="A1B1" to="B1C1" departLane="best" departSpeed="max" type="passenger"/>
    <trip id="230" depart="115.00" from="A1B1" to="B1C1" departLane="best" departSpeed="max" type="passenger"/>
    <trip id="231" depart="115.50" from="A1B1" to="B1C1" departLane="best" departSpeed="max" type="passenger"/>
    <trip id="232" depart="116.00" from="A1B1" to="B1C1" departLane="best" departSpeed="max" type="passenger"/>
    <trip id="233" depart="116.50" from="A1B1" to="B1C1" departLane="best" departSpeed="max" type="passenger"/>
    <trip id="234" depart="117.00" from="A1B1" to="B1C1" departLane="best" departSpeed="max" type="passenger"/>
    <trip id="235" depart="117.50" from="A1B1" to="B1C1" departLane="best" departSpeed="max" type="passenger"/>
    <trip id="236" depart="118.00" from="A1B1" to="B1C1" departLane="best" departSpeed="max" type="passenger"/>
    <trip id="237" depart="118.50" from="A1B1" to="B1C1" departLane="best" departSpeed="max" type="passenger"/>
    <trip id="238" depart="119.00" from="A1B1" to="B1C1" departLane="best" departSpeed="max" type="passenger"/>
    <trip id="239" depart="119.50" from="A1B1" to="B1C1" departLane="best" departSpeed="max" type="passenger"/>
    <trip id="240" depart="120.00" from="A1B1" to="B1C1" departLane="best" departSpeed="max" type="passenger"/>
    <trip id="241" depart="120.50" from="A1B1" to="B1C1" departLane="best" departSpeed="max" type="passenger"/>
    <trip id="242" depart="121.00" from="A1B1" to="B1C1" departLane="best" departSpeed="max" type="passenger"/>
    <trip id="243" depart="121.50" from="A1B1" to="B1C1" departLane="best" departSpeed="max" type="passenger"/>
    <trip id="244" depart="122.00" from="A1B1" to="B1C1" departLane="best" departSpeed="max" type="passenger"/>
    <trip id="245" depart="122.50" from="A1B1" to="B1C1" departLane="best" departSpeed="max" type="passenger"/>
    <trip id="246" depart="123.00" from="A1B1" to="B1C1" departLane="best" departSpeed="max" type="passenger"/>
    <trip id="247" depart="123.50" from="A1B1" to="B1C1" departLane="best" departSpeed="max" type="passenger"/>
    <trip id="248" depart="124.00" from="A1B1" to="B1C1" departLane="best" departSpeed="max" type="passenger"/>
    <trip id="249" depart="124.50" from="A1B1" to="B1C1" departLane="best" departSpeed="max" type="passenger"/>
    <trip id="250" depart="125.00" from="A1B1" to="B1C1" departLane="best" departSpeed="max" type="passenger"/>
    <trip id="251" depart="125.50" from="A1B1" to="B1C1" departLane="best" departSpeed="max" type="passenger"/>
    <trip id="252" depart="126.00" from="A1B1" to="B1C1" departLane="best" departSpeed="max" type="passenger"/>
    <trip id="253" depart="126.50" from="A1B1" to="B1C1" departLane="best" departSpeed="max" type="passenger"/>
    <trip id="254" depart="127.00" from="A1B1" to="B1C1" departLane="best" departSpeed="max" type="passenger"/>
    <trip id="255" depart="127.50" from="A1B1" to="B1C1" departLane="best" departSpeed="max" type="passenger"/>
    <trip id="256" depart="128.00" from="A1B1" to="B1C1" departLane="best" departSpeed="max" type="passenger"/>
    <trip id="257" depart="128.50" from="A1B1" to="B1C1" departLane="best" departSpeed="max" type="passenger"/>
    <trip id="258" depart="129.00" from="A1B1" to="B1C1" departLane="best" departSpeed="max" type="passenger"/>
    <trip id="259" depart="129.50" from="A1B1" to="B1C1" departLane="best" departSpeed="max" type="passenger"/>
    <trip id="260" depart="130.00" from="A1B1" to="B1C1" departLane="best" departSpeed="max" type="passenger"/>
    <trip id="261" depart="130.50" from="A1B1" to="B1C1" departLane="best" departSpeed="max" type="passenger"/>
    <trip id="262" depart="131.00" from="A1B1" to="B1C1" departLane="best" departSpeed="max" type="passenger"/>
    <trip id="263" depart="131.50" from="A1B1" to="B1C1" departLane="best" departSpeed="max" type="passenger"/>
    <trip id="264" depart="132.00" from="A1B1" to="B1C1" departLane="best" departSpeed="max" type="passenger"/>
    <trip id="265" depart="132.50" from="A1B1" to="B1C1" departLane="best" departSpeed="max" type="passenger"/>