<?xml version="1.0" encoding="UTF-8"?>
<!-- generated on 2021-05-02 13:14:04.107873 by $Id$
  options: -n map.net.xml -r passenger_routes.rou.xml -o passenger_trips.xml -b 0 -e 100 -p 0.8 <doubleminus>vehicle-class passenger
-->
<routes xmlns:xsi="http://www.w3.org/2001/XMLSchema-instance" xsi:noNamespaceSchemaLocation="http://sumo.dlr.de/xsd/routes_file.xsd">
    <vType id="passenger" vClass="passenger"/>
    <trip id="0" depart="0.00" from="A1B1" to="B1C1" type="passenger"/>
    <trip id="1" depart="0.80" from="A1B1" to="B1C1" type="passenger"/>
    <trip id="2" depart="1.60" from="A1B1" to="B1C1" type="passenger"/>
    <trip id="3" depart="2.40" from="A1B1" to="B1C1" type="passenger"/>
    <trip id="4" depart="3.20" from="A1B1" to="B1C1" type="passenger"/>
    <trip id="5" depart="4.00" from="A1B1" to="B1C1" type="passenger"/>
    <trip id="6" depart="4.80" from="A1B1" to="B1C1" type="passenger"/>
    <trip id="7" depart="5.60" from="A1B1" to="B1C1" type="passenger"/>
    <trip id="8" depart="6.40" from="A1B1" to="B1C1" type="passenger"/>
    <trip id="9" depart="7.20" from="A1B1" to="B1C1" type="passenger"/>
    <trip id="10" depart="8.00" from="A1B1" to="B1C1" type="passenger"/>
    <trip id="11" depart="8.80" from="A1B1" to="B1C1" type="passenger"/>
    <trip id="12" depart="9.60" from="A1B1" to="B1C1" type="passenger"/>
    <trip id="13" depart="10.40" from="A1B1" to="B1C1" type="passenger"/>
    <trip id="14" depart="11.20" from="A1B1" to="B1C1" type="passenger"/>
    <trip id="15" depart="12.00" from="A1B1" to="B1C1" type="passenger"/>
    <trip id="16" depart="12.80" from="A1B1" to="B1C1" type="passenger"/>
    <trip id="17" depart="13.60" from="A1B1" to="B1C1" type="passenger"/>
    <trip id="18" depart="14.40" from="A1B1" to="B1C1" type="passenger"/>
    <trip id="19" depart="15.20" from="A1B1" to="B1C1" type="passenger"/>
    <trip id="20" depart="16.00" from="A1B1" to="B1C1" type="passenger"/>
    <trip id="21" depart="16.80" from="A1B1" to="B1C1" type="passenger"/>
    <trip id="22" depart="17.60" from="A1B1" to="B1C1" type="passenger"/>
    <trip id="23" depart="18.40" from="A1B1" to="B1C1" type="passenger"/>
    <trip id="24" depart="19.20" from="A1B1" to="B1C1" type="passenger"/>
    <trip id="25" depart="20.00" from="A1B1" to="B1C1" type="passenger"/>
    <trip id="26" depart="20.80" from="A1B1" to="B1C1" type="passenger"/>
    <trip id="27" depart="21.60" from="A1B1" to="B1C1" type="passenger"/>
    <trip id="28" depart="22.40" from="A1B1" to="B1C1" type="passenger"/>
    <trip id="29" depart="23.20" from="A1B1" to="B1C1" type="passenger"/>
    <trip id="30" depart="24.00" from="A1B1" to="B1C1" type="passenger"/>
    <trip id="31" depart="24.80" from="A1B1" to="B1C1" type="passenger"/>
    <trip id="32" depart="25.60" from="A1B1" to="B1C1" type="passenger"/>
    <trip id="33" depart="26.40" from="A1B1" to="B1C1" type="passenger"/>
    <trip id="34" depart="27.20" from="A1B1" to="B1C1" type="passenger"/>
    <trip id="35" depart="28.00" from="A1B1" to="B1C1" type="passenger"/>
    <trip id="36" depart="28.80" from="A1B1" to="B1C1" type="passenger"/>
    <trip id="37" depart="29.60" from="A1B1" to="B1C1" type="passenger"/>
    <trip id="38" depart="30.40" from="A1B1" to="B1C1" type="passenger"/>
    <trip id="39" depart="31.20" from="A1B1" to="B1C1" type="passenger"/>
    <trip id="40" depart="32.00" from="A1B1" to="B1C1" type="passenger"/>
    <trip id="41" depart="32.80" from="A1B1" to="B1C1" type="passenger"/>
    <trip id="42" depart="33.60" from="A1B1" to="B1C1" type="passenger"/>
    <trip id="43" depart="34.40" from="A1B1" to="B1C1" type="passenger"/>
    <trip id="44" depart="35.20" from="A1B1" to="B1C1" type="passenger"/>
    <trip id="45" depart="36.00" from="A1B1" to="B1C1" type="passenger"/>
    <trip id="46" depart="36.80" from="A1B1" to="B1C1" type="passenger"/>
    <trip id="47" depart="37.60" from="A1B1" to="B1C1" type="passenger"/>
    <trip id="48" depart="38.40" from="A1B1" to="B1C1" type="passenger"/>
    <trip id="49" depart="39.20" from="A1B1" to="B1C1" type="passenger"/>
    <trip id="50" depart="40.00" from="A1B1" to="B1C1" type="passenger"/>
    <trip id="51" depart="40.80" from="A1B1" to="B1C1" type="passenger"/>
    <trip id="52" depart="41.60" from="A1B1" to="B1C1" type="passenger"/>
    <trip id="53" depart="42.40" from="A1B1" to="B1C1" type="passenger"/>
    <trip id="54" depart="43.20" from="A1B1" to="B1C1" type="passenger"/>
    <trip id="55" depart="44.00" from="A1B1" to="B1C1" type="passenger"/>
    <trip id="56" depart="44.80" from="A1B1" to="B1C1" type="passenger"/>
    <trip id="57" depart="45.60" from="A1B1" to="B1C1" type="passenger"/>
    <trip id="58" depart="46.40" from="A1B1" to="B1C1" type="passenger"/>
    <trip id="59" depart="47.20" from="A1B1" to="B1C1" type="passenger"/>
    <trip id="60" depart="48.00" from="A1B1" to="B1C1" type="passenger"/>
    <trip id="61" depart="48.80" from="A1B1" to="B1C1" type="passenger"/>
    <trip id="62" depart="49.60" from="A1B1" to="B1C1" type="passenger"/>
    <trip id="63" depart="50.40" from="A1B1" to="B1C1" type="passenger"/>
    <trip id="64" depart="51.20" from="A1B1" to="B1C1" type="passenger"/>
    <trip id="65" depart="52.00" from="A1B1" to="B1C1" type="passenger"/>
    <trip id="66" depart="52.80" from="A1B1" to="B1C1" type="passenger"/>
    <trip id="67" depart="53.60" from="A1B1" to="B1C1" type="passenger"/>
    <trip id="68" depart="54.40" from="A1B1" to="B1C1" type="passenger"/>
    <trip id="69" depart="55.20" from="A1B1" to="B1C1" type="passenger"/>
    <trip id="70" depart="56.00" from="A1B1" to="B1C1" type="passenger"/>
    <trip id="71" depart="56.80" from="A1B1" to="B1C1" type="passenger"/>
    <trip id="72" depart="57.60" from="A1B1" to="B1C1" type="passenger"/>
    <trip id="73" depart="58.40" from="A1B1" to="B1C1" type="passenger"/>
    <trip id="74" depart="59.20" from="A1B1" to="B1C1" type="passenger"/>
    <trip id="75" depart="60.00" from="A1B1" to="B1C1" type="passenger"/>
    <trip id="76" depart="60.80" from="A1B1" to="B1C1" type="passenger"/>
    <trip id="77" depart="61.60" from="A1B1" to="B1C1" type="passenger"/>
    <trip id="78" depart="62.40" from="A1B1" to="B1C1" type="passenger"/>
    <trip id="79" depart="63.20" from="A1B1" to="B1C1" type="passenger"/>
    <trip id="80" depart="64.00" from="A1B1" to="B1C1" type="passenger"/>
    <trip id="81" depart="64.80" from="A1B1" to="B1C1" type="passenger"/>
    <trip id="82" depart="65.60" from="A1B1" to="B1C1" type="passenger"/>
    <trip id="83" depart="66.40" from="A1B1" to="B1C1" type="passenger"/>
    <trip id="84" depart="67.20" from="A1B1" to="B1C1" type="passenger"/>
    <trip id="85" depart="68.00" from="A1B1" to="B1C1" type="passenger"/>
    <trip id="86" depart="68.80" from="A1B1" to="B1C1" type="passenger"/>
    <trip id="87" depart="69.60" from="A1B1" to="B1C1" type="passenger"/>
    <trip id="88" depart="70.40" from="A1B1" to="B1C1" type="passenger"/>
    <trip id="89" depart="71.20" from="A1B1" to="B1C1" type="passenger"/>
    <trip id="90" depart="72.00" from="A1B1" to="B1C1" type="passenger"/>
    <trip id="91" depart="72.80" from="A1B1" to="B1C1" type="passenger"/>
    <trip id="92" depart="73.60" from="A1B1" to="B1C1" type="passenger"/>
    <trip id="93" depart="74.40" from="A1B1" to="B1C1" type="passenger"/>
    <trip id="94" depart="75.20" from="A1B1" to="B1C1" type="passenger"/>
    <trip id="95" depart="76.00" from="A1B1" to="B1C1" type="passenger"/>
    <trip id="96" depart="76.80" from="A1B1" to="B1C1" type="passenger"/>
    <trip id="97" depart="77.60" from="A1B1" to="B1C1" type="passenger"/>
    <trip id="98" depart="78.40" from="A1B1" to="B1C1" type="passenger"/>
    <trip id="99" depart="79.20" from="A1B1" to="B1C1" type="passenger"/>
    <trip id="100" depart="80.00" from="A1B1" to="B1C1" type="passenger"/>
    <trip id="101" depart="80.80" from="A1B1" to="B1C1" type="passenger"/>
    <trip id="102" depart="81.60" from="A1B1" to="B1C1" type="passenger"/>
    <trip id="103" depart="82.40" from="A1B1" to="B1C1" type="passenger"/>
    <trip id="104" depart="83.20" from="A1B1" to="B1C1" type="passenger"/>
    <trip id="105" depart="84.00" from="A1B1" to="B1C1" type="passenger"/>
    <trip id="106" depart="84.80" from="A1B1" to="B1C1" type="passenger"/>
    <trip id="107" depart="85.60" from="A1B1" to="B1C1" type="passenger"/>
    <trip id="108" depart="86.40" from="A1B1" to="B1C1" type="passenger"/>
    <trip id="109" depart="87.20" from="A1B1" to="B1C1" type="passenger"/>
    <trip id="110" depart="88.00" from="A1B1" to="B1C1" type="passenger"/>
    <trip id="111" depart="88.80" from="A1B1" to="B1C1" type="passenger"/>
    <trip id="112" depart="89.60" from="A1B1" to="B1C1" type="passenger"/>
    <trip id="113" depart="90.40" from="A1B1" to="B1C1" type="passenger"/>
    <trip id="114" depart="91.20" from="A1B1" to="B1C1" type="passenger"/>
    <trip id="115" depart="92.00" from="A1B1" to="B1C1" type="passenger"/>
    <trip id="116" depart="92.80" from="A1B1" to="B1C1" type="passenger"/>
    <trip id="117" depart="93.60" from="A1B1" to="B1C1" type="passenger"/>
    <trip id="118" depart="94.40" from="A1B1" to="B1C1" type="passenger"/>
    <trip id="119" depart="95.20" from="A1B1" to="B1C1" type="passenger"/>
    <trip id="120" depart="96.00" from="A1B1" to="B1C1" type="passenger"/>
    <trip id="121" depart="96.80" from="A1B1" to="B1C1" type="passenger"/>
    <trip id="122" depart="97.60" from="A1B1" to="B1C1" type="passenger"/>
    <trip id="123" depart="98.40" from="A1B1" to="B1C1" type="passenger"/>
    <trip id="124" depart="99.20" from="A1B1" to="B1C1" type="passenger"/>
    <trip id="125" depart="100.00" from="A1B1" to="B1C1" type="passenger"/>
</routes>
