<?xml version="1.0" encoding="UTF-8"?>

<!-- generated on Thu May 13 13:07:04 2021 by Eclipse SUMO duarouter Version 1.1.0
<configuration xmlns:xsi="http://www.w3.org/2001/XMLSchema-instance" xsi:noNamespaceSchemaLocation="http://sumo.dlr.de/xsd/duarouterConfiguration.xsd">

    <input>
        <net-file value="map.net.xml"/>
        <route-files value="passenger_trips.xml"/>
    </input>

    <output>
        <output-file value="passenger_routes.rou.xml"/>
        <alternatives-output value="passenger_routes.rou.alt.xml"/>
    </output>

    <time>
        <begin value="0.0"/>
        <end value="300.0"/>
    </time>

    <report>
        <no-warnings value="true"/>
        <ignore-errors value="true"/>
        <no-step-log value="true"/>
    </report>

</configuration>
-->

<routes xmlns:xsi="http://www.w3.org/2001/XMLSchema-instance" xsi:noNamespaceSchemaLocation="http://sumo.dlr.de/xsd/routes_file.xsd">
    <vType id="passenger" maxSpeed="11.11" vClass="passenger"/>
    <vehicle id="passenger0" type="passenger" depart="0.00" departLane="best" departSpeed="max">
        <route edges="A1B1 B1C1"/>
    </vehicle>
    <vehicle id="passenger1" type="passenger" depart="0.50" departLane="best" departSpeed="max">
        <route edges="A1B1 B1C1"/>
    </vehicle>
    <vehicle id="passenger2" type="passenger" depart="1.00" departLane="best" departSpeed="max">
        <route edges="A1B1 B1C1"/>
    </vehicle>
    <vehicle id="passenger3" type="passenger" depart="1.50" departLane="best" departSpeed="max">
        <route edges="A1B1 B1C1"/>
    </vehicle>
    <vehicle id="passenger4" type="passenger" depart="2.00" departLane="best" departSpeed="max">
        <route edges="A1B1 B1C1"/>
    </vehicle>
    <vehicle id="passenger5" type="passenger" depart="2.50" departLane="best" departSpeed="max">
        <route edges="A1B1 B1C1"/>
    </vehicle>
    <vehicle id="passenger6" type="passenger" depart="3.00" departLane="best" departSpeed="max">
        <route edges="A1B1 B1C1"/>
    </vehicle>
    <vehicle id="passenger7" type="passenger" depart="3.50" departLane="best" departSpeed="max">
        <route edges="A1B1 B1C1"/>
    </vehicle>
    <vehicle id="passenger8" type="passenger" depart="4.00" departLane="best" departSpeed="max">
        <route edges="A1B1 B1C1"/>
    </vehicle>
    <vehicle id="passenger9" type="passenger" depart="4.50" departLane="best" departSpeed="max">
        <route edges="A1B1 B1C1"/>
    </vehicle>
    <vehicle id="passenger10" type="passenger" depart="5.00" departLane="best" departSpeed="max">
        <route edges="A1B1 B1C1"/>
    </vehicle>
    <vehicle id="passenger11" type="passenger" depart="5.50" departLane="best" departSpeed="max">
        <route edges="A1B1 B1C1"/>
    </vehicle>
    <vehicle id="passenger12" type="passenger" depart="6.00" departLane="best" departSpeed="max">
        <route edges="A1B1 B1C1"/>
    </vehicle>
    <vehicle id="passenger13" type="passenger" depart="6.50" departLane="best" departSpeed="max">
        <route edges="A1B1 B1C1"/>
    </vehicle>
    <vehicle id="passenger14" type="passenger" depart="7.00" departLane="best" departSpeed="max">
        <route edges="A1B1 B1C1"/>
    </vehicle>
    <vehicle id="passenger15" type="passenger" depart="7.50" departLane="best" departSpeed="max">
        <route edges="A1B1 B1C1"/>
    </vehicle>
    <vehicle id="passenger16" type="passenger" depart="8.00" departLane="best" departSpeed="max">
        <route edges="A1B1 B1C1"/>
    </vehicle>
    <vehicle id="passenger17" type="passenger" depart="8.50" departLane="best" departSpeed="max">
        <route edges="A1B1 B1C1"/>
    </vehicle>
    <vehicle id="passenger18" type="passenger" depart="9.00" departLane="best" departSpeed="max">
        <route edges="A1B1 B1C1"/>
    </vehicle>
    <vehicle id="passenger19" type="passenger" depart="9.50" departLane="best" departSpeed="max">
        <route edges="A1B1 B1C1"/>
    </vehicle>
    <vehicle id="passenger20" type="passenger" depart="10.00" departLane="best" departSpeed="max">
        <route edges="A1B1 B1C1"/>
    </vehicle>
    <vehicle id="passenger21" type="passenger" depart="10.50" departLane="best" departSpeed="max">
        <route edges="A1B1 B1C1"/>
    </vehicle>
    <vehicle id="passenger22" type="passenger" depart="11.00" departLane="best" departSpeed="max">
        <route edges="A1B1 B1C1"/>
    </vehicle>
    <vehicle id="passenger23" type="passenger" depart="11.50" departLane="best" departSpeed="max">
        <route edges="A1B1 B1C1"/>
    </vehicle>
    <vehicle id="passenger24" type="passenger" depart="12.00" departLane="best" departSpeed="max">
        <route edges="A1B1 B1C1"/>
    </vehicle>
    <vehicle id="passenger25" type="passenger" depart="12.50" departLane="best" departSpeed="max">
        <route edges="A1B1 B1C1"/>
    </vehicle>
    <vehicle id="passenger26" type="passenger" depart="13.00" departLane="best" departSpeed="max">
        <route edges="A1B1 B1C1"/>
    </vehicle>
    <vehicle id="passenger27" type="passenger" depart="13.50" departLane="best" departSpeed="max">
        <route edges="A1B1 B1C1"/>
    </vehicle>
    <vehicle id="passenger28" type="passenger" depart="14.00" departLane="best" departSpeed="max">
        <route edges="A1B1 B1C1"/>
    </vehicle>
    <vehicle id="passenger29" type="passenger" depart="14.50" departLane="best" departSpeed="max">
        <route edges="A1B1 B1C1"/>
    </vehicle>
    <vehicle id="passenger30" type="passenger" depart="15.00" departLane="best" departSpeed="max">
        <route edges="A1B1 B1C1"/>
    </vehicle>
    <vehicle id="passenger31" type="passenger" depart="15.50" departLane="best" departSpeed="max">
        <route edges="A1B1 B1C1"/>
    </vehicle>
    <vehicle id="passenger32" type="passenger" depart="16.00" departLane="best" departSpeed="max">
        <route edges="A1B1 B1C1"/>
    </vehicle>
    <vehicle id="passenger33" type="passenger" depart="16.50" departLane="best" departSpeed="max">
        <route edges="A1B1 B1C1"/>
    </vehicle>
    <vehicle id="passenger34" type="passenger" depart="17.00" departLane="best" departSpeed="max">
        <route edges="A1B1 B1C1"/>
    </vehicle>
    <vehicle id="passenger35" type="passenger" depart="17.50" departLane="best" departSpeed="max">
        <route edges="A1B1 B1C1"/>
    </vehicle>
    <vehicle id="passenger36" type="passenger" depart="18.00" departLane="best" departSpeed="max">
        <route edges="A1B1 B1C1"/>
    </vehicle>
    <vehicle id="passenger37" type="passenger" depart="18.50" departLane="best" departSpeed="max">
        <route edges="A1B1 B1C1"/>
    </vehicle>
    <vehicle id="passenger38" type="passenger" depart="19.00" departLane="best" departSpeed="max">
        <route edges="A1B1 B1C1"/>
    </vehicle>
    <vehicle id="passenger39" type="passenger" depart="19.50" departLane="best" departSpeed="max">
        <route edges="A1B1 B1C1"/>
    </vehicle>
    <vehicle id="passenger40" type="passenger" depart="20.00" departLane="best" departSpeed="max">
        <route edges="A1B1 B1C1"/>
    </vehicle>
    <vehicle id="passenger41" type="passenger" depart="20.50" departLane="best" departSpeed="max">
        <route edges="A1B1 B1C1"/>
    </vehicle>
    <vehicle id="passenger42" type="passenger" depart="21.00" departLane="best" departSpeed="max">
        <route edges="A1B1 B1C1"/>
    </vehicle>
    <vehicle id="passenger43" type="passenger" depart="21.50" departLane="best" departSpeed="max">
        <route edges="A1B1 B1C1"/>
    </vehicle>
    <vehicle id="passenger44" type="passenger" depart="22.00" departLane="best" departSpeed="max">
        <route edges="A1B1 B1C1"/>
    </vehicle>
    <vehicle id="passenger45" type="passenger" depart="22.50" departLane="best" departSpeed="max">
        <route edges="A1B1 B1C1"/>
    </vehicle>
    <vehicle id="passenger46" type="passenger" depart="23.00" departLane="best" departSpeed="max">
        <route edges="A1B1 B1C1"/>
    </vehicle>
    <vehicle id="passenger47" type="passenger" depart="23.50" departLane="best" departSpeed="max">
        <route edges="A1B1 B1C1"/>
    </vehicle>
    <vehicle id="passenger48" type="passenger" depart="24.00" departLane="best" departSpeed="max">
        <route edges="A1B1 B1C1"/>
    </vehicle>
    <vehicle id="passenger49" type="passenger" depart="24.50" departLane="best" departSpeed="max">
        <route edges="A1B1 B1C1"/>
    </vehicle>
    <vehicle id="passenger50" type="passenger" depart="25.00" departLane="best" departSpeed="max">
        <route edges="A1B1 B1C1"/>
    </vehicle>
    <vehicle id="passenger51" type="passenger" depart="25.50" departLane="best" departSpeed="max">
        <route edges="A1B1 B1C1"/>
    </vehicle>
    <vehicle id="passenger52" type="passenger" depart="26.00" departLane="best" departSpeed="max">
        <route edges="A1B1 B1C1"/>
    </vehicle>
    <vehicle id="passenger53" type="passenger" depart="26.50" departLane="best" departSpeed="max">
        <route edges="A1B1 B1C1"/>
    </vehicle>
    <vehicle id="passenger54" type="passenger" depart="27.00" departLane="best" departSpeed="max">
        <route edges="A1B1 B1C1"/>
    </vehicle>
    <vehicle id="passenger55" type="passenger" depart="27.50" departLane="best" departSpeed="max">
        <route edges="A1B1 B1C1"/>
    </vehicle>
    <vehicle id="passenger56" type="passenger" depart="28.00" departLane="best" departSpeed="max">
        <route edges="A1B1 B1C1"/>
    </vehicle>
    <vehicle id="passenger57" type="passenger" depart="28.50" departLane="best" departSpeed="max">
        <route edges="A1B1 B1C1"/>
    </vehicle>
    <vehicle id="passenger58" type="passenger" depart="29.00" departLane="best" departSpeed="max">
        <route edges="A1B1 B1C1"/>
    </vehicle>
    <vehicle id="passenger59" type="passenger" depart="29.50" departLane="best" departSpeed="max">
        <route edges="A1B1 B1C1"/>
    </vehicle>
    <vehicle id="passenger60" type="passenger" depart="30.00" departLane="best" departSpeed="max">
        <route edges="A1B1 B1C1"/>
    </vehicle>
    <vehicle id="passenger61" type="passenger" depart="30.50" departLane="best" departSpeed="max">
        <route edges="A1B1 B1C1"/>
    </vehicle>
    <vehicle id="passenger62" type="passenger" depart="31.00" departLane="best" departSpeed="max">
        <route edges="A1B1 B1C1"/>
    </vehicle>
    <vehicle id="passenger63" type="passenger" depart="31.50" departLane="best" departSpeed="max">
        <route edges="A1B1 B1C1"/>
    </vehicle>
    <vehicle id="passenger64" type="passenger" depart="32.00" departLane="best" departSpeed="max">
        <route edges="A1B1 B1C1"/>
    </vehicle>
    <vehicle id="passenger65" type="passenger" depart="32.50" departLane="best" departSpeed="max">
        <route edges="A1B1 B1C1"/>
    </vehicle>
    <vehicle id="passenger66" type="passenger" depart="33.00" departLane="best" departSpeed="max">
        <route edges="A1B1 B1C1"/>
    </vehicle>
    <vehicle id="passenger67" type="passenger" depart="33.50" departLane="best" departSpeed="max">
        <route edges="A1B1 B1C1"/>
    </vehicle>
    <vehicle id="passenger68" type="passenger" depart="34.00" departLane="best" departSpeed="max">
        <route edges="A1B1 B1C1"/>
    </vehicle>
    <vehicle id="passenger69" type="passenger" depart="34.50" departLane="best" departSpeed="max">
        <route edges="A1B1 B1C1"/>
    </vehicle>
    <vehicle id="passenger70" type="passenger" depart="35.00" departLane="best" departSpeed="max">
        <route edges="A1B1 B1C1"/>
    </vehicle>
    <vehicle id="passenger71" type="passenger" depart="35.50" departLane="best" departSpeed="max">
        <route edges="A1B1 B1C1"/>
    </vehicle>
    <vehicle id="passenger72" type="passenger" depart="36.00" departLane="best" departSpeed="max">
        <route edges="A1B1 B1C1"/>
    </vehicle>
    <vehicle id="passenger73" type="passenger" depart="36.50" departLane="best" departSpeed="max">
        <route edges="A1B1 B1C1"/>
    </vehicle>
    <vehicle id="passenger74" type="passenger" depart="37.00" departLane="best" departSpeed="max">
        <route edges="A1B1 B1C1"/>
    </vehicle>
    <vehicle id="passenger75" type="passenger" depart="37.50" departLane="best" departSpeed="max">
        <route edges="A1B1 B1C1"/>
    </vehicle>
    <vehicle id="passenger76" type="passenger" depart="38.00" departLane="best" departSpeed="max">
        <route edges="A1B1 B1C1"/>
    </vehicle>
    <vehicle id="passenger77" type="passenger" depart="38.50" departLane="best" departSpeed="max">
        <route edges="A1B1 B1C1"/>
    </vehicle>
    <vehicle id="passenger78" type="passenger" depart="39.00" departLane="best" departSpeed="max">
        <route edges="A1B1 B1C1"/>
    </vehicle>
    <vehicle id="passenger79" type="passenger" depart="39.50" departLane="best" departSpeed="max">
        <route edges="A1B1 B1C1"/>
    </vehicle>
    <vehicle id="passenger80" type="passenger" depart="40.00" departLane="best" departSpeed="max">
        <route edges="A1B1 B1C1"/>
    </vehicle>
    <vehicle id="passenger81" type="passenger" depart="40.50" departLane="best" departSpeed="max">
        <route edges="A1B1 B1C1"/>
    </vehicle>
    <vehicle id="passenger82" type="passenger" depart="41.00" departLane="best" departSpeed="max">
        <route edges="A1B1 B1C1"/>
    </vehicle>
    <vehicle id="passenger83" type="passenger" depart="41.50" departLane="best" departSpeed="max">
        <route edges="A1B1 B1C1"/>
    </vehicle>
    <vehicle id="passenger84" type="passenger" depart="42.00" departLane="best" departSpeed="max">
        <route edges="A1B1 B1C1"/>
    </vehicle>
    <vehicle id="passenger85" type="passenger" depart="42.50" departLane="best" departSpeed="max">
        <route edges="A1B1 B1C1"/>
    </vehicle>
    <vehicle id="passenger86" type="passenger" depart="43.00" departLane="best" departSpeed="max">
        <route edges="A1B1 B1C1"/>
    </vehicle>
    <vehicle id="passenger87" type="passenger" depart="43.50" departLane="best" departSpeed="max">
        <route edges="A1B1 B1C1"/>
    </vehicle>
    <vehicle id="passenger88" type="passenger" depart="44.00" departLane="best" departSpeed="max">
        <route edges="A1B1 B1C1"/>
    </vehicle>
    <vehicle id="passenger89" type="passenger" depart="44.50" departLane="best" departSpeed="max">
        <route edges="A1B1 B1C1"/>
    </vehicle>
    <vehicle id="passenger90" type="passenger" depart="45.00" departLane="best" departSpeed="max">
        <route edges="A1B1 B1C1"/>
    </vehicle>
    <vehicle id="passenger91" type="passenger" depart="45.50" departLane="best" departSpeed="max">
        <route edges="A1B1 B1C1"/>
    </vehicle>
    <vehicle id="passenger92" type="passenger" depart="46.00" departLane="best" departSpeed="max">
        <route edges="A1B1 B1C1"/>
    </vehicle>
    <vehicle id="passenger93" type="passenger" depart="46.50" departLane="best" departSpeed="max">
        <route edges="A1B1 B1C1"/>
    </vehicle>
    <vehicle id="passenger94" type="passenger" depart="47.00" departLane="best" departSpeed="max">
        <route edges="A1B1 B1C1"/>
    </vehicle>
    <vehicle id="passenger95" type="passenger" depart="47.50" departLane="best" departSpeed="max">
        <route edges="A1B1 B1C1"/>
    </vehicle>
    <vehicle id="passenger96" type="passenger" depart="48.00" departLane="best" departSpeed="max">
        <route edges="A1B1 B1C1"/>
    </vehicle>
    <vehicle id="passenger97" type="passenger" depart="48.50" departLane="best" departSpeed="max">
        <route edges="A1B1 B1C1"/>
    </vehicle>
    <vehicle id="passenger98" type="passenger" depart="49.00" departLane="best" departSpeed="max">
        <route edges="A1B1 B1C1"/>
    </vehicle>
    <vehicle id="passenger99" type="passenger" depart="49.50" departLane="best" departSpeed="max">
        <route edges="A1B1 B1C1"/>
    </vehicle>
    <vehicle id="passenger100" type="passenger" depart="50.00" departLane="best" departSpeed="max">
        <route edges="A1B1 B1C1"/>
    </vehicle>
    <vehicle id="passenger101" type="passenger" depart="50.50" departLane="best" departSpeed="max">
        <route edges="A1B1 B1C1"/>
    </vehicle>
    <vehicle id="passenger102" type="passenger" depart="51.00" departLane="best" departSpeed="max">
        <route edges="A1B1 B1C1"/>
    </vehicle>
    <vehicle id="passenger103" type="passenger" depart="51.50" departLane="best" departSpeed="max">
        <route edges="A1B1 B1C1"/>
    </vehicle>
    <vehicle id="passenger104" type="passenger" depart="52.00" departLane="best" departSpeed="max">
        <route edges="A1B1 B1C1"/>
    </vehicle>
    <vehicle id="passenger105" type="passenger" depart="52.50" departLane="best" departSpeed="max">
        <route edges="A1B1 B1C1"/>
    </vehicle>
    <vehicle id="passenger106" type="passenger" depart="53.00" departLane="best" departSpeed="max">
        <route edges="A1B1 B1C1"/>
    </vehicle>
    <vehicle id="passenger107" type="passenger" depart="53.50" departLane="best" departSpeed="max">
        <route edges="A1B1 B1C1"/>
    </vehicle>
    <vehicle id="passenger108" type="passenger" depart="54.00" departLane="best" departSpeed="max">
        <route edges="A1B1 B1C1"/>
    </vehicle>
    <vehicle id="passenger109" type="passenger" depart="54.50" departLane="best" departSpeed="max">
        <route edges="A1B1 B1C1"/>
    </vehicle>
    <vehicle id="passenger110" type="passenger" depart="55.00" departLane="best" departSpeed="max">
        <route edges="A1B1 B1C1"/>
    </vehicle>
    <vehicle id="passenger111" type="passenger" depart="55.50" departLane="best" departSpeed="max">
        <route edges="A1B1 B1C1"/>
    </vehicle>
    <vehicle id="passenger112" type="passenger" depart="56.00" departLane="best" departSpeed="max">
        <route edges="A1B1 B1C1"/>
    </vehicle>
    <vehicle id="passenger113" type="passenger" depart="56.50" departLane="best" departSpeed="max">
        <route edges="A1B1 B1C1"/>
    </vehicle>
    <vehicle id="passenger114" type="passenger" depart="57.00" departLane="best" departSpeed="max">
        <route edges="A1B1 B1C1"/>
    </vehicle>
    <vehicle id="passenger115" type="passenger" depart="57.50" departLane="best" departSpeed="max">
        <route edges="A1B1 B1C1"/>
    </vehicle>
    <vehicle id="passenger116" type="passenger" depart="58.00" departLane="best" departSpeed="max">
        <route edges="A1B1 B1C1"/>
    </vehicle>
    <vehicle id="passenger117" type="passenger" depart="58.50" departLane="best" departSpeed="max">
        <route edges="A1B1 B1C1"/>
    </vehicle>
    <vehicle id="passenger118" type="passenger" depart="59.00" departLane="best" departSpeed="max">
        <route edges="A1B1 B1C1"/>
    </vehicle>
    <vehicle id="passenger119" type="passenger" depart="59.50" departLane="best" departSpeed="max">
        <route edges="A1B1 B1C1"/>
    </vehicle>
    <vehicle id="passenger120" type="passenger" depart="60.00" departLane="best" departSpeed="max">
        <route edges="A1B1 B1C1"/>
    </vehicle>
    <vehicle id="passenger121" type="passenger" depart="60.50" departLane="best" departSpeed="max">
        <route edges="A1B1 B1C1"/>
    </vehicle>
    <vehicle id="passenger122" type="passenger" depart="61.00" departLane="best" departSpeed="max">
        <route edges="A1B1 B1C1"/>
    </vehicle>
    <vehicle id="passenger123" type="passenger" depart="61.50" departLane="best" departSpeed="max">
        <route edges="A1B1 B1C1"/>
    </vehicle>
    <vehicle id="passenger124" type="passenger" depart="62.00" departLane="best" departSpeed="max">
        <route edges="A1B1 B1C1"/>
    </vehicle>
    <vehicle id="passenger125" type="passenger" depart="62.50" departLane="best" departSpeed="max">
        <route edges="A1B1 B1C1"/>
    </vehicle>
    <vehicle id="passenger126" type="passenger" depart="63.00" departLane="best" departSpeed="max">
        <route edges="A1B1 B1C1"/>
    </vehicle>
    <vehicle id="passenger127" type="passenger" depart="63.50" departLane="best" departSpeed="max">
        <route edges="A1B1 B1C1"/>
    </vehicle>
    <vehicle id="passenger128" type="passenger" depart="64.00" departLane="best" departSpeed="max">
        <route edges="A1B1 B1C1"/>
    </vehicle>
    <vehicle id="passenger129" type="passenger" depart="64.50" departLane="best" departSpeed="max">
        <route edges="A1B1 B1C1"/>
    </vehicle>
    <vehicle id="passenger130" type="passenger" depart="65.00" departLane="best" departSpeed="max">
        <route edges="A1B1 B1C1"/>
    </vehicle>
    <vehicle id="passenger131" type="passenger" depart="65.50" departLane="best" departSpeed="max">
        <route edges="A1B1 B1C1"/>
    </vehicle>
    <vehicle id="passenger132" type="passenger" depart="66.00" departLane="best" departSpeed="max">
        <route edges="A1B1 B1C1"/>
    </vehicle>
    <vehicle id="passenger133" type="passenger" depart="66.50" departLane="best" departSpeed="max">
        <route edges="A1B1 B1C1"/>
    </vehicle>
    <vehicle id="passenger134" type="passenger" depart="67.00" departLane="best" departSpeed="max">
        <route edges="A1B1 B1C1"/>
    </vehicle>
    <vehicle id="passenger135" type="passenger" depart="67.50" departLane="best" departSpeed="max">
        <route edges="A1B1 B1C1"/>
    </vehicle>
    <vehicle id="passenger136" type="passenger" depart="68.00" departLane="best" departSpeed="max">
        <route edges="A1B1 B1C1"/>
    </vehicle>
    <vehicle id="passenger137" type="passenger" depart="68.50" departLane="best" departSpeed="max">
        <route edges="A1B1 B1C1"/>
    </vehicle>
    <vehicle id="passenger138" type="passenger" depart="69.00" departLane="best" departSpeed="max">
        <route edges="A1B1 B1C1"/>
    </vehicle>
    <vehicle id="passenger139" type="passenger" depart="69.50" departLane="best" departSpeed="max">
        <route edges="A1B1 B1C1"/>
    </vehicle>
    <vehicle id="passenger140" type="passenger" depart="70.00" departLane="best" departSpeed="max">
        <route edges="A1B1 B1C1"/>
    </vehicle>
    <vehicle id="passenger141" type="passenger" depart="70.50" departLane="best" departSpeed="max">
        <route edges="A1B1 B1C1"/>
    </vehicle>
    <vehicle id="passenger142" type="passenger" depart="71.00" departLane="best" departSpeed="max">
        <route edges="A1B1 B1C1"/>
    </vehicle>
    <vehicle id="passenger143" type="passenger" depart="71.50" departLane="best" departSpeed="max">
        <route edges="A1B1 B1C1"/>
    </vehicle>
    <vehicle id="passenger144" type="passenger" depart="72.00" departLane="best" departSpeed="max">
        <route edges="A1B1 B1C1"/>
    </vehicle>
    <vehicle id="passenger145" type="passenger" depart="72.50" departLane="best" departSpeed="max">
        <route edges="A1B1 B1C1"/>
    </vehicle>
    <vehicle id="passenger146" type="passenger" depart="73.00" departLane="best" departSpeed="max">
        <route edges="A1B1 B1C1"/>
    </vehicle>
    <vehicle id="passenger147" type="passenger" depart="73.50" departLane="best" departSpeed="max">
        <route edges="A1B1 B1C1"/>
    </vehicle>
    <vehicle id="passenger148" type="passenger" depart="74.00" departLane="best" departSpeed="max">
        <route edges="A1B1 B1C1"/>
    </vehicle>
    <vehicle id="passenger149" type="passenger" depart="74.50" departLane="best" departSpeed="max">
        <route edges="A1B1 B1C1"/>
    </vehicle>
    <vehicle id="passenger150" type="passenger" depart="75.00" departLane="best" departSpeed="max">
        <route edges="A1B1 B1C1"/>
    </vehicle>
    <vehicle id="passenger151" type="passenger" depart="75.50" departLane="best" departSpeed="max">
        <route edges="A1B1 B1C1"/>
    </vehicle>
    <vehicle id="passenger152" type="passenger" depart="76.00" departLane="best" departSpeed="max">
        <route edges="A1B1 B1C1"/>
    </vehicle>
    <vehicle id="passenger153" type="passenger" depart="76.50" departLane="best" departSpeed="max">
        <route edges="A1B1 B1C1"/>
    </vehicle>
    <vehicle id="passenger154" type="passenger" depart="77.00" departLane="best" departSpeed="max">
        <route edges="A1B1 B1C1"/>
    </vehicle>
    <vehicle id="passenger155" type="passenger" depart="77.50" departLane="best" departSpeed="max">
        <route edges="A1B1 B1C1"/>
    </vehicle>
    <vehicle id="passenger156" type="passenger" depart="78.00" departLane="best" departSpeed="max">
        <route edges="A1B1 B1C1"/>
    </vehicle>
    <vehicle id="passenger157" type="passenger" depart="78.50" departLane="best" departSpeed="max">
        <route edges="A1B1 B1C1"/>
    </vehicle>
    <vehicle id="passenger158" type="passenger" depart="79.00" departLane="best" departSpeed="max">
        <route edges="A1B1 B1C1"/>
    </vehicle>
    <vehicle id="passenger159" type="passenger" depart="79.50" departLane="best" departSpeed="max">
        <route edges="A1B1 B1C1"/>
    </vehicle>
    <vehicle id="passenger160" type="passenger" depart="80.00" departLane="best" departSpeed="max">
        <route edges="A1B1 B1C1"/>
    </vehicle>
    <vehicle id="passenger161" type="passenger" depart="80.50" departLane="best" departSpeed="max">
        <route edges="A1B1 B1C1"/>
    </vehicle>
    <vehicle id="passenger162" type="passenger" depart="81.00" departLane="best" departSpeed="max">
        <route edges="A1B1 B1C1"/>
    </vehicle>
    <vehicle id="passenger163" type="passenger" depart="81.50" departLane="best" departSpeed="max">
        <route edges="A1B1 B1C1"/>
    </vehicle>
    <vehicle id="passenger164" type="passenger" depart="82.00" departLane="best" departSpeed="max">
        <route edges="A1B1 B1C1"/>
    </vehicle>
    <vehicle id="passenger165" type="passenger" depart="82.50" departLane="best" departSpeed="max">
        <route edges="A1B1 B1C1"/>
    </vehicle>
    <vehicle id="passenger166" type="passenger" depart="83.00" departLane="best" departSpeed="max">
        <route edges="A1B1 B1C1"/>
    </vehicle>
    <vehicle id="passenger167" type="passenger" depart="83.50" departLane="best" departSpeed="max">
        <route edges="A1B1 B1C1"/>
    </vehicle>
    <vehicle id="passenger168" type="passenger" depart="84.00" departLane="best" departSpeed="max">
        <route edges="A1B1 B1C1"/>
    </vehicle>
    <vehicle id="passenger169" type="passenger" depart="84.50" departLane="best" departSpeed="max">
        <route edges="A1B1 B1C1"/>
    </vehicle>
    <vehicle id="passenger170" type="passenger" depart="85.00" departLane="best" departSpeed="max">
        <route edges="A1B1 B1C1"/>
    </vehicle>
    <vehicle id="passenger171" type="passenger" depart="85.50" departLane="best" departSpeed="max">
        <route edges="A1B1 B1C1"/>
    </vehicle>
    <vehicle id="passenger172" type="passenger" depart="86.00" departLane="best" departSpeed="max">
        <route edges="A1B1 B1C1"/>
    </vehicle>
    <vehicle id="passenger173" type="passenger" depart="86.50" departLane="best" departSpeed="max">
        <route edges="A1B1 B1C1"/>
    </vehicle>
    <vehicle id="passenger174" type="passenger" depart="87.00" departLane="best" departSpeed="max">
        <route edges="A1B1 B1C1"/>
    </vehicle>
    <vehicle id="passenger175" type="passenger" depart="87.50" departLane="best" departSpeed="max">
        <route edges="A1B1 B1C1"/>
    </vehicle>
    <vehicle id="passenger176" type="passenger" depart="88.00" departLane="best" departSpeed="max">
        <route edges="A1B1 B1C1"/>
    </vehicle>
    <vehicle id="passenger177" type="passenger" depart="88.50" departLane="best" departSpeed="max">
        <route edges="A1B1 B1C1"/>
    </vehicle>
    <vehicle id="passenger178" type="passenger" depart="89.00" departLane="best" departSpeed="max">
        <route edges="A1B1 B1C1"/>
    </vehicle>
    <vehicle id="passenger179" type="passenger" depart="89.50" departLane="best" departSpeed="max">
        <route edges="A1B1 B1C1"/>
    </vehicle>
    <vehicle id="passenger180" type="passenger" depart="90.00" departLane="best" departSpeed="max">
        <route edges="A1B1 B1C1"/>
    </vehicle>
    <vehicle id="passenger181" type="passenger" depart="90.50" departLane="best" departSpeed="max">
        <route edges="A1B1 B1C1"/>
    </vehicle>
    <vehicle id="passenger182" type="passenger" depart="91.00" departLane="best" departSpeed="max">
        <route edges="A1B1 B1C1"/>
    </vehicle>
    <vehicle id="passenger183" type="passenger" depart="91.50" departLane="best" departSpeed="max">
        <route edges="A1B1 B1C1"/>
    </vehicle>
    <vehicle id="passenger184" type="passenger" depart="92.00" departLane="best" departSpeed="max">
        <route edges="A1B1 B1C1"/>
    </vehicle>
    <vehicle id="passenger185" type="passenger" depart="92.50" departLane="best" departSpeed="max">
        <route edges="A1B1 B1C1"/>
    </vehicle>
    <vehicle id="passenger186" type="passenger" depart="93.00" departLane="best" departSpeed="max">
        <route edges="A1B1 B1C1"/>
    </vehicle>
    <vehicle id="passenger187" type="passenger" depart="93.50" departLane="best" departSpeed="max">
        <route edges="A1B1 B1C1"/>
    </vehicle>
    <vehicle id="passenger188" type="passenger" depart="94.00" departLane="best" departSpeed="max">
        <route edges="A1B1 B1C1"/>
    </vehicle>
    <vehicle id="passenger189" type="passenger" depart="94.50" departLane="best" departSpeed="max">
        <route edges="A1B1 B1C1"/>
    </vehicle>
    <vehicle id="passenger190" type="passenger" depart="95.00" departLane="best" departSpeed="max">
        <route edges="A1B1 B1C1"/>
    </vehicle>
    <vehicle id="passenger191" type="passenger" depart="95.50" departLane="best" departSpeed="max">
        <route edges="A1B1 B1C1"/>
    </vehicle>
    <vehicle id="passenger192" type="passenger" depart="96.00" departLane="best" departSpeed="max">
        <route edges="A1B1 B1C1"/>
    </vehicle>
    <vehicle id="passenger193" type="passenger" depart="96.50" departLane="best" departSpeed="max">
        <route edges="A1B1 B1C1"/>
    </vehicle>