<?xml version="1.0" encoding="UTF-8"?>

<!-- generated on Fri Mar 26 13:40:25 2021 by Eclipse SUMO duarouter Version 1.1.0
<configuration xmlns:xsi="http://www.w3.org/2001/XMLSchema-instance" xsi:noNamespaceSchemaLocation="http://sumo.dlr.de/xsd/duarouterConfiguration.xsd">

    <input>
        <net-file value="map.net.xml"/>
        <route-files value="trips.xml"/>
    </input>

    <output>
        <output-file value="routes.rou.xml"/>
        <alternatives-output value="routes.rou.alt.xml"/>
    </output>

    <time>
        <begin value="1.0"/>
        <end value="4.0"/>
    </time>

    <report>
        <no-warnings value="true"/>
        <ignore-errors value="true"/>
        <no-step-log value="true"/>
    </report>

</configuration>
-->

<routes xmlns:xsi="http://www.w3.org/2001/XMLSchema-instance" xsi:noNamespaceSchemaLocation="http://sumo.dlr.de/xsd/routes_file.xsd">
    <vehicle id="2" depart="2.00">
        <route edges="gneE1 gneE2"/>
    </vehicle>
    <vehicle id="3" depart="2.50">
        <route edges="gneE1 gneE2"/>
    </vehicle>
    <vehicle id="4" depart="3.00">
        <route edges="gneE1 gneE2"/>
    </vehicle>
    <vehicle id="5" depart="3.50">
        <route edges="gneE1 gneE2"/>
    </vehicle>
</routes>
