<?xml version="1.0" encoding="UTF-8"?>

<!-- generated on Sun Apr 25 23:15:25 2021 by Eclipse SUMO netgenerate Version 1.1.0
<configuration xmlns:xsi="http://www.w3.org/2001/XMLSchema-instance" xsi:noNamespaceSchemaLocation="http://sumo.dlr.de/xsd/netgenerateConfiguration.xsd">

    <grid_network>
        <grid value="true"/>
        <grid.length value="100"/>
        <grid.x-number value="4"/>
        <grid.y-number value="2"/>
    </grid_network>

    <output>
        <output-file value="map.net.xml"/>
    </output>

    <processing>
        <flip-y-axis value="true"/>
    </processing>

    <building_defaults>
        <default.lanenumber value="1"/>
    </building_defaults>

</configuration>
-->

<net version="1.1" junctionCornerDetail="5" limitTurnSpeed="5.50" xmlns:xsi="http://www.w3.org/2001/XMLSchema-instance" xsi:noNamespaceSchemaLocation="http://sumo.dlr.de/xsd/net_file.xsd">

    <location netOffset="0.00,0.00" convBoundary="0.00,0.00,300.00,100.00" origBoundary="0.00,0.00,300.00,100.00" projParameter="!"/>

    <edge id=":A0_0" function="internal">
        <lane id=":A0_0_0" index="0" speed="6.08" length="7.74" shape="-1.60,3.20 -1.30,1.10 -0.40,-0.40 1.10,-1.30 3.20,-1.60"/>
    </edge>
    <edge id=":A0_1" function="internal">
        <lane id=":A0_1_0" index="0" speed="3.65" length="2.66" shape="-1.60,3.20 -0.80,2.00 0.00,1.60 0.29,1.74"/>
    </edge>
    <edge id=":A0_4" function="internal">
        <lane id=":A0_4_0" index="0" speed="3.65" length="2.01" shape="0.29,1.74 0.80,2.00 1.60,3.20"/>
    </edge>
    <edge id=":A0_2" function="internal">
        <lane id=":A0_2_0" index="0" speed="3.90" length="2.58" shape="3.20,1.60 2.50,1.70 2.00,2.00 1.70,2.50 1.60,3.20"/>
    </edge>
    <edge id=":A0_3" function="internal">
        <lane id=":A0_3_0" index="0" speed="3.65" length="2.08" shape="3.20,1.60 2.00,0.80 1.71,0.23"/>
    </edge>
    <edge id=":A0_5" function="internal">
        <lane id=":A0_5_0" index="0" speed="3.65" length="2.59" shape="1.71,0.23 1.60,0.00 2.00,-0.80 3.20,-1.60"/>
    </edge>
    <edge id=":A1_0" function="internal">
        <lane id=":A1_0_0" index="0" speed="6.08" length="7.74" shape="3.20,101.60 1.10,101.30 -0.40,100.40 -1.30,98.90 -1.60,96.80"/>
    </edge>
    <edge id=":A1_1" function="internal">
        <lane id=":A1_1_0" index="0" speed="3.65" length="2.66" shape="3.20,101.60 2.00,100.80 1.60,100.00 1.74,99.71"/>
    </edge>
    <edge id=":A1_4" function="internal">
        <lane id=":A1_4_0" index="0" speed="3.65" length="2.01" shape="1.74,99.71 2.00,99.20 3.20,98.40"/>
    </edge>
    <edge id=":A1_2" function="internal">
        <lane id=":A1_2_0" index="0" speed="3.90" length="2.58" shape="1.60,96.80 1.70,97.50 2.00,98.00 2.50,98.30 3.20,98.40"/>
    </edge>
    <edge id=":A1_3" function="internal">
        <lane id=":A1_3_0" index="0" speed="3.65" length="2.08" shape="1.60,96.80 0.80,98.00 0.23,98.29"/>
    </edge>
    <edge id=":A1_5" function="internal">
        <lane id=":A1_5_0" index="0" speed="3.65" length="2.59" shape="0.23,98.29 0.00,98.40 -0.80,98.00 -1.60,96.80"/>
    </edge>
    <edge id=":B0_0" function="internal">
        <lane id=":B0_0_0" index="0" speed="6.51" length="9.03" shape="98.40,7.20 98.05,4.75 97.00,3.00 95.25,1.95 92.80,1.60"/>
    </edge>
    <edge id=":B0_1" function="internal">
        <lane id=":B0_1_0" index="0" speed="8.00" length="14.19" shape="98.40,7.20 98.95,3.35 100.60,0.60 103.35,-1.05 107.20,-1.60"/>
    </edge>
    <edge id=":B0_2" function="internal">
        <lane id=":B0_2_0" index="0" speed="3.65" length="4.67" shape="98.40,7.20 99.20,6.00 100.00,5.60 100.80,6.00 101.60,7.20"/>
    </edge>
    <edge id=":B0_3" function="internal">
        <lane id=":B0_3_0" index="0" speed="6.51" length="9.03" shape="107.20,1.60 104.75,1.95 103.00,3.00 101.95,4.75 101.60,7.20"/>
    </edge>
    <edge id=":B0_4" function="internal">
        <lane id=":B0_4_0" index="0" speed="13.89" length="14.40" shape="107.20,1.60 92.80,1.60"/>
    </edge>
    <edge id=":B0_5" function="internal">
        <lane id=":B0_5_0" index="0" speed="3.65" length="2.34" shape="107.20,1.60 106.00,0.80 105.60,0.00"/>
    </edge>
    <edge id=":B0_9" function="internal">
        <lane id=":B0_9_0" index="0" speed="3.65" length="2.34" shape="105.60,0.00 106.00,-0.80 107.20,-1.60"/>
    </edge>
    <edge id=":B0_6" function="internal">
        <lane id=":B0_6_0" index="0" speed="13.89" length="14.40" shape="92.80,-1.60 107.20,-1.60"/>
    </edge>
    <edge id=":B0_7" function="internal">
        <lane id=":B0_7_0" index="0" speed="8.00" length="5.93" shape="92.80,-1.60 96.65,-1.05 98.40,0.00"/>
    </edge>
    <edge id=":B0_8" function="internal">
        <lane id=":B0_8_0" index="0" speed="3.65" length="2.34" shape="92.80,-1.60 94.00,-0.80 94.40,0.00"/>
    </edge>
    <edge id=":B0_10" function="internal">
        <lane id=":B0_10_0" index="0" speed="8.00" length="8.26" shape="98.40,0.00 99.40,0.60 101.05,3.35 101.60,7.20"/>
    </edge>
    <edge id=":B0_11" function="internal">
        <lane id=":B0_11_0" index="0" speed="3.65" length="2.34" shape="94.40,0.00 94.00,0.80 92.80,1.60"/>
    </edge>
    <edge id=":B1_0" function="internal">
        <lane id=":B1_0_0" index="0" speed="13.89" length="14.40" shape="107.20,101.60 92.80,101.60"/>
    </edge>
    <edge id=":B1_1" function="internal">
        <lane id=":B1_1_0" index="0" speed="8.00" length="5.93" shape="107.20,101.60 103.35,101.05 101.60,100.00"/>
    </edge>
    <edge id=":B1_2" function="internal">
        <lane id=":B1_2_0" index="0" speed="3.65" length="2.34" shape="107.20,101.60 106.00,100.80 105.60,100.00"/>
    </edge>
    <edge id=":B1_9" function="internal">
        <lane id=":B1_9_0" index="0" speed="8.00" length="8.26" shape="101.60,100.00 100.60,99.40 98.95,96.65 98.40,92.80"/>
    </edge>
    <edge id=":B1_10" function="internal">
        <lane id=":B1_10_0" index="0" speed="3.65" length="2.34" shape="105.60,100.00 106.00,99.20 107.20,98.40"/>
    </edge>
    <edge id=":B1_3" function="internal">
        <lane id=":B1_3_0" index="0" speed="6.51" length="9.03" shape="101.60,92.80 101.95,95.25 103.00,97.00 104.75,98.05 107.20,98.40"/>
    </edge>
    <edge id=":B1_4" function="internal">
        <lane id=":B1_4_0" index="0" speed="8.00" length="14.19" shape="101.60,92.80 101.05,96.65 99.40,99.40 96.65,101.05 92.80,101.60"/>
    </edge>
    <edge id=":B1_5" function="internal">
        <lane id=":B1_5_0" index="0" speed="3.65" length="4.67" shape="101.60,92.80 100.80,94.00 100.00,94.40 99.20,94.00 98.40,92.80"/>
    </edge>
    <edge id=":B1_6" function="internal">
        <lane id=":B1_6_0" index="0" speed="6.51" length="9.03" shape="92.80,98.40 95.25,98.05 97.00,97.00 98.05,95.25 98.40,92.80"/>
    </edge>
    <edge id=":B1_7" function="internal">
        <lane id=":B1_7_0" index="0" speed="13.89" length="14.40" shape="92.80,98.40 107.20,98.40"/>
    </edge>
    <edge id=":B1_8" function="internal">
        <lane id=":B1_8_0" index="0" speed="3.65" length="2.34" shape="92.80,98.40 94.00,99.20 94.40,100.00"/>
    </edge>
    <edge id=":B1_11" function="internal">
        <lane id=":B1_11_0" index="0" speed="3.65" length="2.34" shape="94.40,100.00 94.00,100.80 92.80,101.60"/>
    </edge>
    <edge id=":C0_0" function="internal">
        <lane id=":C0_0_0" index="0" speed="6.51" length="9.03" shape="198.40,7.20 198.05,4.75 197.00,3.00 195.25,1.95 192.80,1.60"/>
    </edge>
    <edge id=":C0_1" function="internal">
        <lane id=":C0_1_0" index="0" speed="8.00" length="14.19" shape="198.40,7.20 198.95,3.35 200.60,0.60 203.35,-1.05 207.20,-1.60"/>
    </edge>
    <edge id=":C0_2" function="internal">
        <lane id=":C0_2_0" index="0" speed="3.65" length="4.67" shape="198.40,7.20 199.20,6.00 200.00,5.60 200.80,6.00 201.60,7.20"/>
    </edge>
    <edge id=":C0_3" function="internal">
        <lane id=":C0_3_0" index="0" speed="6.51" length="9.03" shape="207.20,1.60 204.75,1.95 203.00,3.00 201.95,4.75 201.60,7.20"/>
    </edge>
    <edge id=":C0_4" function="internal">
        <lane id=":C0_4_0" index="0" speed="13.89" length="14.40" shape="207.20,1.60 192.80,1.60"/>
    </edge>
    <edge id=":C0_5" function="internal">
        <lane id=":C0_5_0" index="0" speed="3.65" length="2.34" shape="207.20,1.60 206.00,0.80 205.60,0.00"/>
    </edge>
    <edge id=":C0_9" function="internal">
        <lane id=":C0_9_0" index="0" speed="3.65" length="2.34" shape="205.60,0.00 206.00,-0.80 207.20,-1.60"/>
    </edge>
    <edge id=":C0_6" function="internal">
        <lane id=":C0_6_0" index="0" speed="13.89" length="14.40" shape="192.80,-1.60 207.20,-1.60"/>
    </edge>
    <edge id=":C0_7" function="internal">
        <lane id=":C0_7_0" index="0" speed="8.00" length="5.93" shape="192.80,-1.60 196.65,-1.05 198.40,0.00"/>
    </edge>
    <edge id=":C0_8" function="internal">
        <lane id=":C0_8_0" index="0" speed="3.65" length="2.34" shape="192.80,-1.60 194.00,-0.80 194.40,0.00"/>
    </edge>
    <edge id=":C0_10" function="internal">
        <lane id=":C0_10_0" index="0" speed="8.00" length="8.26" shape="198.40,0.00 199.40,0.60 201.05,3.35 201.60,7.20"/>
    </edge>
    <edge id=":C0_11" function="internal">
        <lane id=":C0_11_0" index="0" speed="3.65" length="2.34" shape="194.40,0.00 194.00,0.80 192.80,1.60"/>
    </edge>
    <edge id=":C1_0" function="internal">
        <lane id=":C1_0_0" index="0" speed="13.89" length="14.40" shape="207.20,101.60 192.80,101.60"/>
    </edge>
    <edge id=":C1_1" function="internal">
        <lane id=":C1_1_0" index="0" speed="8.00" length="5.93" shape="207.20,101.60 203.35,101.05 201.60,100.00"/>
    </edge>
    <edge id=":C1_2" function="internal">
        <lane id=":C1_2_0" index="0" speed="3.65" length="2.34" shape="207.20,101.60 206.00,100.80 205.60,100.00"/>
    </edge>
    <edge id=":C1_9" function="internal">
        <lane id=":C1_9_0" index="0" speed="8.00" length="8.26" shape="201.60,100.00 200.60,99.40 198.95,96.65 198.40,92.80"/>
    </edge>
    <edge id=":C1_10" function="internal">
        <lane id=":C1_10_0" index="0" speed="3.65" length="2.34" shape="205.60,100.00 206.00,99.20 207.20,98.40"/>
    </edge>
    <edge id=":C1_3" function="internal">
        <lane id=":C1_3_0" index="0" speed="6.51" length="9.03" shape="201.60,92.80 201.95,95.25 203.00,97.00 204.75,98.05 207.20,98.40"/>
    </edge>
    <edge id=":C1_4" function="internal">
        <lane id=":C1_4_0" index="0" speed="8.00" length="14.19" shape="201.60,92.80 201.05,96.65 199.40,99.40 196.65,101.05 192.80,101.60"/>
    </edge>
    <edge id=":C1_5" function="internal">
        <lane id=":C1_5_0" index="0" speed="3.65" length="4.67" shape="201.60,92.80 200.80,94.00 200.00,94.40 199.20,94.00 198.40,92.80"/>
    </edge>
    <edge id=":C1_6" function="internal">
        <lane id=":C1_6_0" index="0" speed="6.51" length="9.03" shape="192.80,98.40 195.25,98.05 197.00,97.00 198.05,95.25 198.40,92.80"/>
    </edge>
    <edge id=":C1_7" function="internal">
        <lane id=":C1_7_0" index="0" speed="13.89" length="14.40" shape="192.80,98.40 207.20,98.40"/>
    </edge>
    <edge id=":C1_8" function="internal">
        <lane id=":C1_8_0" index="0" speed="3.65" length="2.34" shape="192.80,98.40 194.00,99.20 194.40,100.00"/>
    </edge>
    <edge id=":C1_11" function="internal">
        <lane id=":C1_11_0" index="0" speed="3.65" length="2.34" shape="194.40,100.00 194.00,100.80 192.80,101.60"/>
    </edge>
    <edge id=":D0_0" function="internal">
        <lane id=":D0_0_0" index="0" speed="3.90" length="2.58" shape="298.40,3.20 298.30,2.50 298.00,2.00 297.50,1.70 296.80,1.60"/>
    </edge>
    <edge id=":D0_1" function="internal">
        <lane id=":D0_1_0" index="0" speed="3.65" length="2.08" shape="298.40,3.20 299.20,2.00 299.77,1.71"/>
    </edge>
    <edge id=":D0_4" function="internal">
        <lane id=":D0_4_0" index="0" speed="3.65" length="2.59" shape="299.77,1.71 300.00,1.60 300.80,2.00 301.60,3.20"/>
    </edge>
    <edge id=":D0_2" function="internal">
        <lane id=":D0_2_0" index="0" speed="6.08" length="7.74" shape="296.80,-1.60 298.90,-1.30 300.40,-0.40 301.30,1.10 301.60,3.20"/>
    </edge>
    <edge id=":D0_3" function="internal">
        <lane id=":D0_3_0" index="0" speed="3.65" length="2.66" shape="296.80,-1.60 298.00,-0.80 298.40,0.00 298.26,0.29"/>
    </edge>
    <edge id=":D0_5" function="internal">
        <lane id=":D0_5_0" index="0" speed="3.65" length="2.01" shape="298.26,0.29 298.00,0.80 296.80,1.60"/>
    </edge>
    <edge id=":D1_0" function="internal">
        <lane id=":D1_0_0" index="0" speed="6.08" length="7.74" shape="301.60,96.80 301.30,98.90 300.40,100.40 298.90,101.30 296.80,101.60"/>
    </edge>
    <edge id=":D1_1" function="internal">
        <lane id=":D1_1_0" index="0" speed="3.65" length="2.66" shape="301.60,96.80 300.80,98.00 300.00,98.40 299.71,98.26"/>
    </edge>
    <edge id=":D1_4" function="internal">
        <lane id=":D1_4_0" index="0" speed="3.65" length="2.01" shape="299.71,98.26 299.20,98.00 298.40,96.80"/>
    </edge>
    <edge id=":D1_2" function="internal">
        <lane id=":D1_2_0" index="0" speed="3.90" length="2.58" shape="296.80,98.40 297.50,98.30 298.00,98.00 298.30,97.50 298.40,96.80"/>
    </edge>
    <edge id=":D1_3" function="internal">
        <lane id=":D1_3_0" index="0" speed="3.65" length="2.08" shape="296.80,98.40 298.00,99.20 298.29,99.77"/>
    </edge>
    <edge id=":D1_5" function="internal">
        <lane id=":D1_5_0" index="0" speed="3.65" length="2.59" shape="298.29,99.77 298.40,100.00 298.00,100.80 296.80,101.60"/>
    </edge>

    <edge id="A0A1" from="A0" to="A1" priority="-1">
        <lane id="A0A1_0" index="0" speed="13.89" length="93.60" shape="1.60,3.20 1.60,96.80"/>
    </edge>
    <edge id="A0B0" from="A0" to="B0" priority="-1">
        <lane id="A0B0_0" index="0" speed="13.89" length="89.60" shape="3.20,-1.60 92.80,-1.60"/>
    </edge>
    <edge id="A1A0" from="A1" to="A0" priority="-1">
        <lane id="A1A0_0" index="0" speed="13.89" length="93.60" shape="-1.60,96.80 -1.60,3.20"/>
    </edge>
    <edge id="A1B1" from="A1" to="B1" priority="-1">
        <lane id="A1B1_0" index="0" speed="13.89" length="89.60" shape="3.20,98.40 92.80,98.40"/>
    </edge>
    <edge id="B0A0" from="B0" to="A0" priority="-1">
        <lane id="B0A0_0" index="0" speed="13.89" length="89.60" shape="92.80,1.60 3.20,1.60"/>
    </edge>
    <edge id="B0B1" from="B0" to="B1" priority="-1">
        <lane id="B0B1_0" index="0" speed="13.89" length="85.60" shape="101.60,7.20 101.60,92.80"/>
    </edge>
    <edge id="B0C0" from="B0" to="C0" priority="-1">
        <lane id="B0C0_0" index="0" speed="13.89" length="85.60" shape="107.20,-1.60 192.80,-1.60"/>
    </edge>
    <edge id="B1A1" from="B1" to="A1" priority="-1">
        <lane id="B1A1_0" index="0" speed="13.89" length="89.60" shape="92.80,101.60 3.20,101.60"/>
    </edge>
    <edge id="B1B0" from="B1" to="B0" priority="-1">
        <lane id="B1B0_0" index="0" speed="13.89" length="85.60" shape="98.40,92.80 98.40,7.20"/>
    </edge>
    <edge id="B1C1" from="B1" to="C1" priority="-1">
        <lane id="B1C1_0" index="0" speed="13.89" length="85.60" shape="107.20,98.40 192.80,98.40"/>
    </edge>
    <edge id="C0B0" from="C0" to="B0" priority="-1">
        <lane id="C0B0_0" index="0" speed="13.89" length="85.60" shape="192.80,1.60 107.20,1.60"/>
    </edge>
    <edge id="C0C1" from="C0" to="C1" priority="-1">
        <lane id="C0C1_0" index="0" speed="13.89" length="85.60" shape="201.60,7.20 201.60,92.80"/>
    </edge>
    <edge id="C0D0" from="C0" to="D0" priority="-1">
        <lane id="C0D0_0" index="0" speed="13.89" length="89.60" shape="207.20,-1.60 296.80,-1.60"/>
    </edge>
    <edge id="C1B1" from="C1" to="B1" priority="-1">
        <lane id="C1B1_0" index="0" speed="13.89" length="85.60" shape="192.80,101.60 107.20,101.60"/>
    </edge>
    <edge id="C1C0" from="C1" to="C0" priority="-1">
        <lane id="C1C0_0" index="0" speed="13.89" length="85.60" shape="198.40,92.80 198.40,7.20"/>
    </edge>
    <edge id="C1D1" from="C1" to="D1" priority="-1">
        <lane id="C1D1_0" index="0" speed="13.89" length="89.60" shape="207.20,98.40 296.80,98.40"/>
    </edge>
    <edge id="D0C0" from="D0" to="C0" priority="-1">
        <lane id="D0C0_0" index="0" speed="13.89" length="89.60" shape="296.80,1.60 207.20,1.60"/>
    </edge>
    <edge id="D0D1" from="D0" to="D1" priority="-1">
        <lane id="D0D1_0" index="0" speed="13.89" length="93.60" shape="301.60,3.20 301.60,96.80"/>
    </edge>
    <edge id="D1C1" from="D1" to="C1" priority="-1">
        <lane id="D1C1_0" index="0" speed="13.89" length="89.60" shape="296.80,101.60 207.20,101.60"/>
    </edge>
    <edge id="D1D0" from="D1" to="D0" priority="-1">
        <lane id="D1D0_0" index="0" speed="13.89" length="93.60" shape="298.40,96.80 298.40,3.20"/>
    </edge>

    <junction id="A0" type="priority" x="0.00" y="0.00" incLanes="A1A0_0 B0A0_0" intLanes=":A0_0_0 :A0_4_0 :A0_2_0 :A0_5_0" shape="-3.20,3.20 3.20,3.20 3.20,-3.20 -0.36,-2.49 -1.60,-1.60 -2.49,-0.36 -3.02,1.24">
        <request index="0" response="0000" foes="1000" cont="0"/>
        <request index="1" response="0100" foes="0100" cont="1"/>
        <request index="2" response="0000" foes="0010" cont="0"/>
        <request index="3" response="0001" foes="0001" cont="1"/>
    </junction>
    <junction id="A1" type="priority" x="0.00" y="100.00" incLanes="B1A1_0 A0A1_0" intLanes=":A1_0_0 :A1_4_0 :A1_2_0 :A1_5_0" shape="3.20,103.20 3.20,96.80 -3.20,96.80 -2.49,100.36 -1.60,101.60 -0.36,102.49 1.24,103.02">
        <request index="0" response="0000" foes="1000" cont="0"/>
        <request index="1" response="0100" foes="0100" cont="1"/>
        <request index="2" response="0000" foes="0010" cont="0"/>
        <request index="3" response="0001" foes="0001" cont="1"/>
    </junction>
    <junction id="B0" type="priority" x="100.00" y="0.00" incLanes="B1B0_0 C0B0_0 A0B0_0" intLanes=":B0_0_0 :B0_1_0 :B0_2_0 :B0_3_0 :B0_4_0 :B0_9_0 :B0_6_0 :B0_10_0 :B0_11_0" shape="96.80,7.20 103.20,7.20 103.64,4.98 104.20,4.20 104.98,3.64 105.98,3.31 107.20,3.20 107.20,-3.20 92.80,-3.20 92.80,3.20 95.02,3.64 95.80,4.20 96.36,4.98 96.69,5.98">
        <request index="0" response="000010000" foes="100010000" cont="0"/>
        <request index="1" response="011010000" foes="011110000" cont="0"/>
        <request index="2" response="010001000" foes="010001000" cont="0"/>
        <request index="3" response="000000000" foes="010000100" cont="0"/>
        <request index="4" response="000000000" foes="110000011" cont="0"/>
        <request index="5" response="001000010" foes="001000010" cont="1"/>
        <request index="6" response="000000000" foes="000100010" cont="0"/>
        <request index="7" response="000011000" foes="000011110" cont="1"/>
        <request index="8" response="000010001" foes="000010001" cont="1"/>
    </junction>
    <junction id="B1" type="priority" x="100.00" y="100.00" incLanes="C1B1_0 B0B1_0 A1B1_0" intLanes=":B1_0_0 :B1_9_0 :B1_10_0 :B1_3_0 :B1_4_0 :B1_5_0 :B1_6_0 :B1_7_0 :B1_11_0" shape="107.20,103.20 107.20,96.80 104.98,96.36 104.20,95.80 103.64,95.02 103.31,94.02 103.20,92.80 96.80,92.80 96.36,95.02 95.80,95.80 95.02,96.36 94.02,96.69 92.80,96.80 92.80,103.20">
        <request index="0" response="000000000" foes="100010000" cont="0"/>
        <request index="1" response="011000000" foes="011110000" cont="1"/>
        <request index="2" response="010001000" foes="010001000" cont="1"/>
        <request index="3" response="010000000" foes="010000100" cont="0"/>
        <request index="4" response="010000011" foes="110000011" cont="0"/>
        <request index="5" response="001000010" foes="001000010" cont="0"/>
        <request index="6" response="000000000" foes="000100010" cont="0"/>
        <request index="7" response="000000000" foes="000011110" cont="0"/>
        <request index="8" response="000010001" foes="000010001" cont="1"/>
    </junction>
    <junction id="C0" type="priority" x="200.00" y="0.00" incLanes="C1C0_0 D0C0_0 B0C0_0" intLanes=":C0_0_0 :C0_1_0 :C0_2_0 :C0_3_0 :C0_4_0 :C0_9_0 :C0_6_0 :C0_10_0 :C0_11_0" shape="196.80,7.20 203.20,7.20 203.64,4.98 204.20,4.20 204.98,3.64 205.98,3.31 207.20,3.20 207.20,-3.20 192.80,-3.20 192.80,3.20 195.02,3.64 195.80,4.20 196.36,4.98 196.69,5.98">
        <request index="0" response="000010000" foes="100010000" cont="0"/>
        <request index="1" response="011010000" foes="011110000" cont="0"/>
        <request index="2" response="010001000" foes="010001000" cont="0"/>
        <request index="3" response="000000000" foes="010000100" cont="0"/>
        <request index="4" response="000000000" foes="110000011" cont="0"/>
        <request index="5" response="001000010" foes="001000010" cont="1"/>
        <request index="6" response="000000000" foes="000100010" cont="0"/>
        <request index="7" response="000011000" foes="000011110" cont="1"/>
        <request index="8" response="000010001" foes="000010001" cont="1"/>
    </junction>
    <junction id="C1" type="priority" x="200.00" y="100.00" incLanes="D1C1_0 C0C1_0 B1C1_0" intLanes=":C1_0_0 :C1_9_0 :C1_10_0 :C1_3_0 :C1_4_0 :C1_5_0 :C1_6_0 :C1_7_0 :C1_11_0" shape="207.20,103.20 207.20,96.80 204.98,96.36 204.20,95.80 203.64,95.02 203.31,94.02 203.20,92.80 196.80,92.80 196.36,95.02 195.80,95.80 195.02,96.36 194.02,96.69 192.80,96.80 192.80,103.20">
        <request index="0" response="000000000" foes="100010000" cont="0"/>
        <request index="1" response="011000000" foes="011110000" cont="1"/>
        <request index="2" response="010001000" foes="010001000" cont="1"/>
        <request index="3" response="010000000" foes="010000100" cont="0"/>
        <request index="4" response="010000011" foes="110000011" cont="0"/>
        <request index="5" response="001000010" foes="001000010" cont="0"/>
        <request index="6" response="000000000" foes="000100010" cont="0"/>
        <request index="7" response="000000000" foes="000011110" cont="0"/>
        <request index="8" response="000010001" foes="000010001" cont="1"/>
    </junction>
    <junction id="D0" type="priority" x="300.00" y="0.00" incLanes="D1D0_0 C0D0_0" intLanes=":D0_0_0 :D0_4_0 :D0_2_0 :D0_5_0" shape="296.80,3.20 303.20,3.20 302.49,-0.36 301.60,-1.60 300.36,-2.49 298.76,-3.02 296.80,-3.20">
        <request index="0" response="0000" foes="1000" cont="0"/>
        <request index="1" response="0100" foes="0100" cont="1"/>
        <request index="2" response="0000" foes="0010" cont="0"/>
        <request index="3" response="0001" foes="0001" cont="1"/>
    </junction>
    <junction id="D1" type="priority" x="300.00" y="100.00" incLanes="D0D1_0 C1D1_0" intLanes=":D1_0_0 :D1_4_0 :D1_2_0 :D1_5_0" shape="303.20,96.80 296.80,96.80 296.80,103.20 300.36,102.49 301.60,101.60 302.49,100.36 303.02,98.76">
        <request index="0" response="0000" foes="1000" cont="0"/>
        <request index="1" response="0100" foes="0100" cont="1"/>
        <request index="2" response="0000" foes="0010" cont="0"/>
        <request index="3" response="0001" foes="0001" cont="1"/>
    </junction>

    <junction id=":A0_4_0" type="internal" x="0.29" y="1.74" incLanes=":A0_1_0 B0A0_0" intLanes=":A0_2_0"/>
    <junction id=":A0_5_0" type="internal" x="1.71" y="0.23" incLanes=":A0_3_0 A1A0_0" intLanes=":A0_0_0"/>
    <junction id=":A1_4_0" type="internal" x="1.74" y="99.71" incLanes=":A1_1_0 A0A1_0" intLanes=":A1_2_0"/>
    <junction id=":A1_5_0" type="internal" x="0.23" y="98.29" incLanes=":A1_3_0 B1A1_0" intLanes=":A1_0_0"/>
    <junction id=":B0_9_0" type="internal" x="105.60" y="0.00" incLanes=":B0_5_0 A0B0_0 B1B0_0" intLanes=":B0_1_0 :B0_6_0"/>
    <junction id=":B0_10_0" type="internal" x="98.40" y="0.00" incLanes=":B0_7_0 C0B0_0" intLanes=":B0_1_0 :B0_2_0 :B0_3_0 :B0_4_0"/>
    <junction id=":B0_11_0" type="internal" x="94.40" y="0.00" incLanes=":B0_8_0 B1B0_0 C0B0_0" intLanes=":B0_0_0 :B0_4_0"/>
    <junction id=":B1_9_0" type="internal" x="101.60" y="100.00" incLanes=":B1_1_0 A1B1_0" intLanes=":B1_4_0 :B1_5_0 :B1_6_0 :B1_7_0"/>
    <junction id=":B1_10_0" type="internal" x="105.60" y="100.00" incLanes=":B1_2_0 A1B1_0 B0B1_0" intLanes=":B1_3_0 :B1_7_0"/>
    <junction id=":B1_11_0" type="internal" x="94.40" y="100.00" incLanes=":B1_8_0 B0B1_0 C1B1_0" intLanes=":B1_0_0 :B1_4_0"/>
    <junction id=":C0_9_0" type="internal" x="205.60" y="0.00" incLanes=":C0_5_0 B0C0_0 C1C0_0" intLanes=":C0_1_0 :C0_6_0"/>
    <junction id=":C0_10_0" type="internal" x="198.40" y="0.00" incLanes=":C0_7_0 D0C0_0" intLanes=":C0_1_0 :C0_2_0 :C0_3_0 :C0_4_0"/>
    <junction id=":C0_11_0" type="internal" x="194.40" y="0.00" incLanes=":C0_8_0 C1C0_0 D0C0_0" intLanes=":C0_0_0 :C0_4_0"/>
    <junction id=":C1_9_0" type="internal" x="201.60" y="100.00" incLanes=":C1_1_0 B1C1_0" intLanes=":C1_4_0 :C1_5_0 :C1_6_0 :C1_7_0"/>
    <junction id=":C1_10_0" type="internal" x="205.60" y="100.00" incLanes=":C1_2_0 B1C1_0 C0C1_0" intLanes=":C1_3_0 :C1_7_0"/>
    <junction id=":C1_11_0" type="internal" x="194.40" y="100.00" incLanes=":C1_8_0 C0C1_0 D1C1_0" intLanes=":C1_0_0 :C1_4_0"/>
    <junction id=":D0_4_0" type="internal" x="299.77" y="1.71" incLanes=":D0_1_0 C0D0_0" intLanes=":D0_2_0"/>
    <junction id=":D0_5_0" type="internal" x="298.26" y="0.29" incLanes=":D0_3_0 D1D0_0" intLanes=":D0_0_0"/>
    <junction id=":D1_4_0" type="internal" x="299.71" y="98.26" incLanes=":D1_1_0 C1D1_0" intLanes=":D1_2_0"/>
    <junction id=":D1_5_0" type="internal" x="298.29" y="99.77" incLanes=":D1_3_0 D0D1_0" intLanes=":D1_0_0"/>

    <connection from="A0A1" to="A1B1" fromLane="0" toLane="0" via=":A1_2_0" dir="r" state="M"/>
    <connection from="A0A1" to="A1A0" fromLane="0" toLane="0" via=":A1_3_0" dir="t" state="m"/>
    <connection from="A0B0" to="B0C0" fromLane="0" toLane="0" via=":B0_6_0" dir="s" state="M"/>
    <connection from="A0B0" to="B0B1" fromLane="0" toLane="0" via=":B0_7_0" dir="l" state="m"/>
    <connection from="A0B0" to="B0A0" fromLane="0" toLane="0" via=":B0_8_0" dir="t" state="m"/>
    <connection from="A1A0" to="A0B0" fromLane="0" toLane="0" via=":A0_0_0" dir="l" state="M"/>
    <connection from="A1A0" to="A0A1" fromLane="0" toLane="0" via=":A0_1_0" dir="t" state="m"/>
    <connection from="A1B1" to="B1B0" fromLane="0" toLane="0" via=":B1_6_0" dir="r" state="M"/>
    <connection from="A1B1" to="B1C1" fromLane="0" toLane="0" via=":B1_7_0" dir="s" state="M"/>
    <connection from="A1B1" to="B1A1" fromLane="0" toLane="0" via=":B1_8_0" dir="t" state="m"/>
    <connection from="B0A0" to="A0A1" fromLane="0" toLane="0" via=":A0_2_0" dir="r" state="M"/>
    <connection from="B0A0" to="A0B0" fromLane="0" toLane="0" via=":A0_3_0" dir="t" state="m"/>
    <connection from="B0B1" to="B1C1" fromLane="0" toLane="0" via=":B1_3_0" dir="r" state="m"/>
    <connection from="B0B1" to="B1A1" fromLane="0" toLane="0" via=":B1_4_0" dir="l" state="m"/>
    <connection from="B0B1" to="B1B0" fromLane="0" toLane="0" via=":B1_5_0" dir="t" state="m"/>
    <connection from="B0C0" to="C0D0" fromLane="0" toLane="0" via=":C0_6_0" dir="s" state="M"/>
    <connection from="B0C0" to="C0C1" fromLane="0" toLane="0" via=":C0_7_0" dir="l" state="m"/>
    <connection from="B0C0" to="C0B0" fromLane="0" toLane="0" via=":C0_8_0" dir="t" state="m"/>
    <connection from="B1A1" to="A1A0" fromLane="0" toLane="0" via=":A1_0_0" dir="l" state="M"/>
    <connection from="B1A1" to="A1B1" fromLane="0" toLane="0" via=":A1_1_0" dir="t" state="m"/>
    <connection from="B1B0" to="B0A0" fromLane="0" toLane="0" via=":B0_0_0" dir="r" state="m"/>
    <connection from="B1B0" to="B0C0" fromLane="0" toLane="0" via=":B0_1_0" dir="l" state="m"/>
    <connection from="B1B0" to="B0B1" fromLane="0" toLane="0" via=":B0_2_0" dir="t" state="m"/>
    <connection from="B1C1" to="C1C0" fromLane="0" toLane="0" via=":C1_6_0" dir="r" state="M"/>
    <connection from="B1C1" to="C1D1" fromLane="0" toLane="0" via=":C1_7_0" dir="s" state="M"/>
    <connection from="B1C1" to="C1B1" fromLane="0" toLane="0" via=":C1_8_0" dir="t" state="m"/>
    <connection from="C0B0" to="B0B1" fromLane="0" toLane="0" via=":B0_3_0" dir="r" state="M"/>
    <connection from="C0B0" to="B0A0" fromLane="0" toLane="0" via=":B0_4_0" dir="s" state="M"/>
    <connection from="C0B0" to="B0C0" fromLane="0" toLane="0" via=":B0_5_0" dir="t" state="m"/>
    <connection from="C0C1" to="C1D1" fromLane="0" toLane="0" via=":C1_3_0" dir="r" state="m"/>
    <connection from="C0C1" to="C1B1" fromLane="0" toLane="0" via=":C1_4_0" dir="l" state="m"/>
    <connection from="C0C1" to="C1C0" fromLane="0" toLane="0" via=":C1_5_0" dir="t" state="m"/>
    <connection from="C0D0" to="D0D1" fromLane="0" toLane="0" via=":D0_2_0" dir="l" state="M"/>
    <connection from="C0D0" to="D0C0" fromLane="0" toLane="0" via=":D0_3_0" dir="t" state="m"/>
    <connection from="C1B1" to="B1A1" fromLane="0" toLane="0" via=":B1_0_0" dir="s" state="M"/>
    <connection from="C1B1" to="B1B0" fromLane="0" toLane="0" via=":B1_1_0" dir="l" state="m"/>
    <connection from="C1B1" to="B1C1" fromLane="0" toLane="0" via=":B1_2_0" dir="t" state="m"/>
    <connection from="C1C0" to="C0B0" fromLane="0" toLane="0" via=":C0_0_0" dir="r" state="m"/>
    <connection from="C1C0" to="C0D0" fromLane="0" toLane="0" via=":C0_1_0" dir="l" state="m"/>
    <connection from="C1C0" to="C0C1" fromLane="0" toLane="0" via=":C0_2_0" dir="t" state="m"/>
    <connection from="C1D1" to="D1D0" fromLane="0" toLane="0" via=":D1_2_0" dir="r" state="M"/>
    <connection from="C1D1" to="D1C1" fromLane="0" toLane="0" via=":D1_3_0" dir="t" state="m"/>
    <connection from="D0C0" to="C0C1" fromLane="0" toLane="0" via=":C0_3_0" dir="r" state="M"/>
    <connection from="D0C0" to="C0B0" fromLane="0" toLane="0" via=":C0_4_0" dir="s" state="M"/>
    <connection from="D0C0" to="C0D0" fromLane="0" toLane="0" via=":C0_5_0" dir="t" state="m"/>
    <connection from="D0D1" to="D1C1" fromLane="0" toLane="0" via=":D1_0_0" dir="l" state="M"/>