<?xml version="1.0" encoding="UTF-8"?>
<routes xmlns:xsi="http://www.w3.org/2001/XMLSchema-instance" xsi:noNamespaceSchemaLocation="http://sumo.dlr.de/xsd/routes_file.xsd">
    <vType id="passenger" vClass="passenger"/>
    <vehicle id="passenger0" type="passenger" depart="3.00">
        <route edges="D0C0 C0B0 B0C0 C0D0"/>
    </vehicle>
    <vehicle id="passenger1" type="passenger" depart="9.00">
        <route edges="A0B0 B0B1"/>
    </vehicle>
</routes>