<?xml version="1.0" encoding="UTF-8"?>

<!-- generated on Mon May  3 15:51:10 2021 by Eclipse SUMO duarouter Version 1.1.0
<configuration xmlns:xsi="http://www.w3.org/2001/XMLSchema-instance" xsi:noNamespaceSchemaLocation="http://sumo.dlr.de/xsd/duarouterConfiguration.xsd">

    <input>
        <net-file value="map.net.xml"/>
        <route-files value="passenger_trips.xml"/>
    </input>

    <output>
        <output-file value="passenger_routes.rou.xml"/>
        <alternatives-output value="passenger_routes.rou.alt.xml"/>
    </output>

    <time>
        <begin value="0.0"/>
        <end value="300.0"/>
    </time>

    <report>
        <no-warnings value="true"/>
        <ignore-errors value="true"/>
        <no-step-log value="true"/>
    </report>

</configuration>
-->

<routes xmlns:xsi="http://www.w3.org/2001/XMLSchema-instance" xsi:noNamespaceSchemaLocation="http://sumo.dlr.de/xsd/routes_file.xsd">
    <vType id="passenger" vClass="passenger"/>
    <vehicle id="passenger0" type="passenger" depart="0.00">
        <route edges="C0C1 C1D1 D1D0"/>
    </vehicle>
    <vehicle id="passenger1" type="passenger" depart="2.00">
        <route edges="B0B1 B1B0 B0A0"/>
    </vehicle>
    <vehicle id="passenger2" type="passenger" depart="4.00">
        <route edges="A0A1 A1B1 B1A1"/>
    </vehicle>
    <vehicle id="passenger3" type="passenger" depart="6.00">
        <route edges="A1B1 B1A1 A1A0 A0B0"/>
    </vehicle>
    <vehicle id="passenger4" type="passenger" depart="8.00">
        <route edges="A1A0 A0B0 B0C0 C0D0 D0D1"/>
    </vehicle>
    <vehicle id="passenger5" type="passenger" depart="10.00">
        <route edges="C1B1 B1A1"/>
    </vehicle>
    <vehicle id="passenger6" type="passenger" depart="12.00">
        <route edges="C0C1 C1C0"/>
    </vehicle>
    <vehicle id="passenger7" type="passenger" depart="14.00">
        <route edges="B0C0 C0D0 D0C0"/>
    </vehicle>
    <vehicle id="passenger8" type="passenger" depart="16.00">
        <route edges="A0B0 B0A0 A0A1 A1A0"/>
    </vehicle>
    <vehicle id="passenger9" type="passenger" depart="18.00">
        <route edges="C0B0"/>
    </vehicle>
    <vehicle id="passenger10" type="passenger" depart="20.00">
        <route edges="B0C0 C0C1 C1D1 D1D0"/>
    </vehicle>
    <vehicle id="passenger11" type="passenger" depart="22.00">
        <route edges="C0C1 C1D1 D1D0 D0C0"/>
    </vehicle>
    <vehicle id="passenger12" type="passenger" depart="24.00">
        <route edges="C1D1 D1C1 C1B1"/>
    </vehicle>
    <vehicle id="passenger13" type="passenger" depart="26.00">
        <route edges="B0A0 A0B0 B0C0 C0C1 C1C0"/>
    </vehicle>
    <vehicle id="passenger14" type="passenger" depart="28.00">
        <route edges="B1C1 C1D1 D1D0 D0C0"/>
    </vehicle>
    <vehicle id="passenger15" type="passenger" depart="30.00">
        <route edges="B0B1 B1A1"/>
    </vehicle>
    <vehicle id="passenger16" type="passenger" depart="32.00">
        <route edges="A0B0 B0C0 C0B0"/>
    </vehicle>
    <vehicle id="passenger17" type="passenger" depart="34.00">
        <route edges="B1B0 B0B1 B1C1"/>
    </vehicle>
    <vehicle id="passenger18" type="passenger" depart="36.00">
        <route edges="A1A0 A0B0 B0C0 C0B0"/>
    </vehicle>
    <vehicle id="passenger19" type="passenger" depart="38.00">
        <route edges="B0B1 B1C1 C1C0 C0C1"/>
    </vehicle>
    <vehicle id="passenger20" type="passenger" depart="40.00">
        <route edges="A0A1 A1B1 B1C1 C1B1"/>
    </vehicle>
    <vehicle id="passenger21" type="passenger" depart="42.00">
        <route edges="A1B1 B1B0 B0C0"/>
    </vehicle>
    <vehicle id="passenger22" type="passenger" depart="44.00">
        <route edges="C0D0 D0C0 C0B0 B0A0 A0A1 A1B1"/>
    </vehicle>
    <vehicle id="passenger23" type="passenger" depart="46.00">
        <route edges="C1B1 B1B0 B0A0"/>
    </vehicle>
    <vehicle id="passenger24" type="passenger" depart="48.00">
        <route edges="D1D0 D0C0 C0C1 C1B1"/>
    </vehicle>
    <vehicle id="passenger25" type="passenger" depart="50.00">
        <route edges="A1A0 A0A1"/>
    </vehicle>
    <vehicle id="passenger26" type="passenger" depart="52.00">
        <route edges="D1C1 C1B1 B1A1 A1B1"/>
    </vehicle>
    <vehicle id="passenger27" type="passenger" depart="54.00">
        <route edges="B0A0 A0A1 A1B1"/>
    </vehicle>
    <vehicle id="passenger28" type="passenger" depart="56.00">
        <route edges="A0B0 B0B1"/>
    </vehicle>
    <vehicle id="passenger29" type="passenger" depart="58.00">
        <route edges="C1D1 D1C1 C1B1 B1B0 B0A0"/>
    </vehicle>
    <vehicle id="passenger30" type="passenger" depart="60.00">
        <route edges="A1B1 B1C1 C1C0 C0C1"/>
    </vehicle>
    <vehicle id="passenger31" type="passenger" depart="62.00">
        <route edges="D1D0 D0C0 C0C1 C1D1"/>
    </vehicle>
    <vehicle id="passenger32" type="passenger" depart="64.00">
        <route edges="B1A1 A1B1 B1C1 C1B1"/>
    </vehicle>
    <vehicle id="passenger33" type="passenger" depart="66.00">
        <route edges="A0A1 A1B1 B1C1 C1C0 C0C1"/>
    </vehicle>
    <vehicle id="passenger34" type="passenger" depart="68.00">
        <route edges="C1C0 C0C1 C1D1"/>
    </vehicle>
    <vehicle id="passenger35" type="passenger" depart="70.00">
        <route edges="B1A1 A1A0 A0B0"/>
    </vehicle>
    <vehicle id="passenger36" type="passenger" depart="72.00">
        <route edges="B1A1 A1B1 B1C1 C1C0 C0B0"/>
    </vehicle>
    <vehicle id="passenger37" type="passenger" depart="74.00">
        <route edges="C1D1 D1C1 C1B1 B1B0"/>
    </vehicle>
    <vehicle id="passenger38" type="passenger" depart="76.00">
        <route edges="B0B1 B1C1 C1D1 D1D0 D0C0"/>
    </vehicle>
    <vehicle id="passenger39" type="passenger" depart="78.00">
        <route edges="D1C1 C1B1 B1B0 B0A0 A0A1"/>
    </vehicle>
    <vehicle id="passenger40" type="passenger" depart="80.00">
        <route edges="B0A0 A0A1 A1B1"/>
    </vehicle>
    <vehicle id="passenger41" type="passenger" depart="82.00">
        <route edges="A1A0 A0A1 A1B1 B1C1"/>
    </vehicle>
    <vehicle id="passenger42" type="passenger" depart="84.00">
        <route edges="B0A0"/>
    </vehicle>
    <vehicle id="passenger43" type="passenger" depart="86.00">
        <route edges="D1D0 D0C0 C0B0 B0B1 B1A1"/>
    </vehicle>
    <vehicle id="passenger44" type="passenger" depart="88.00">
        <route edges="B1C1 C1B1 B1A1"/>
    </vehicle>
    <vehicle id="passenger45" type="passenger" depart="90.00">
        <route edges="B0A0 A0B0 B0C0 C0B0"/>
    </vehicle>
    <vehicle id="passenger46" type="passenger" depart="92.00">
        <route edges="C1B1 B1B0"/>
    </vehicle>
    <vehicle id="passenger47" type="passenger" depart="94.00">
        <route edges="C0D0 D0C0 C0B0 B0B1 B1A1"/>
    </vehicle>
    <vehicle id="passenger48" type="passenger" depart="96.00">
        <route edges="C0B0 B0A0 A0A1 A1A0"/>
    </vehicle>
    <vehicle id="passenger49" type="passenger" depart="98.00">
        <route edges="B1B0 B0C0 C0C1 C1C0"/>
    </vehicle>
    <vehicle id="passenger50" type="passenger" depart="100.00">
        <route edges="A1B1 B1A1 A1A0 A0B0"/>
    </vehicle>
    <vehicle id="passenger51" type="passenger" depart="102.00">
        <route edges="A1A0 A0B0 B0C0"/>
    </vehicle>
    <vehicle id="passenger52" type="passenger" depart="104.00">
        <route edges="C1B1 B1C1 C1D1 D1D0 D0D1"/>
    </vehicle>
    <vehicle id="passenger53" type="passenger" depart="106.00">
        <route edges="A1B1 B1A1 A1A0 A0A1"/>
    </vehicle>
    <vehicle id="passenger54" type="passenger" depart="108.00">
        <route edges="C0B0 B0C0 C0C1 C1D1 D1C1"/>
    </vehicle>
    <vehicle id="passenger55" type="passenger" depart="110.00">
        <route edges="B0A0 A0A1 A1B1"/>
    </vehicle>
    <vehicle id="passenger56" type="passenger" depart="112.00">
        <route edges="D0D1 D1D0 D0C0 C0B0 B0A0"/>
    </vehicle>
    <vehicle id="passenger57" type="passenger" depart="114.00">
        <route edges="B0C0 C0B0 B0B1 B1C1"/>
    </vehicle>
    <vehicle id="passenger58" type="passenger" depart="116.00">
        <route edges="D0D1 D1C1 C1B1 B1A1 A1A0"/>
    </vehicle>
    <vehicle id="passenger59" type="passenger" depart="118.00">
        <route edges="A1A0 A0A1 A1B1 B1C1 C1D1"/>
    </vehicle>
    <vehicle id="passenger60" type="passenger" depart="120.00">
        <route edges="C1D1 D1C1 C1B1 B1A1"/>
    </vehicle>
    <vehicle id="passenger61" type="passenger" depart="122.00">
        <route edges="D0D1 D1D0 D0C0 C0B0 B0B1"/>
    </vehicle>
    <vehicle id="passenger62" type="passenger" depart="124.00">
        <route edges="D1D0 D0C0 C0B0 B0C0"/>
    </vehicle>
    <vehicle id="passenger63" type="passenger" depart="126.00">
        <route edges="A1A0 A0A1 A1B1 B1A1"/>
    </vehicle>
    <vehicle id="passenger64" type="passenger" depart="128.00">
        <route edges="C0B0 B0C0 C0C1 C1C0"/>
    </vehicle>
    <vehicle id="passenger65" type="passenger" depart="130.00">
        <route edges="B1C1 C1B1 B1B0 B0A0"/>
    </vehicle>
    <vehicle id="passenger66" type="passenger" depart="132.00">
        <route edges="B1A1 A1B1 B1C1 C1D1"/>
    </vehicle>
    <vehicle id="passenger67" type="passenger" depart="134.00">
        <route edges="C0D0 D0C0 C0C1 C1D1"/>
    </vehicle>
    <vehicle id="passenger68" type="passenger" depart="136.00">
        <route edges="A1A0"/>
    </vehicle>
    <vehicle id="passenger69" type="passenger" depart="138.00">
        <route edges="B0A0 A0B0 B0B1 B1B0"/>
    </vehicle>
    <vehicle id="passenger70" type="passenger" depart="140.00">
        <route edges="A0B0 B0C0"/>
    </vehicle>
    <vehicle id="passenger71" type="passenger" depart="142.00">
        <route edges="A1B1 B1C1"/>
    </vehicle>
    <vehicle id="passenger72" type="passenger" depart="144.00">
        <route edges="D0C0 C0D0 D0D1 D1C1"/>
    </vehicle>
    <vehicle id="passenger73" type="passenger" depart="146.00">
        <route edges="C0D0 D0C0"/>
    </vehicle>
    <vehicle id="passenger74" type="passenger" depart="148.00">
        <route edges="C0D0 D0C0 C0B0 B0A0 A0B0"/>
    </vehicle>
    <vehicle id="passenger75" type="passenger" depart="150.00">
        <route edges="D1C1 C1B1 B1A1 A1B1"/>
    </vehicle>
    <vehicle id="passenger76" type="passenger" depart="152.00">
        <route edges="A1B1 B1B0 B0A0"/>
    </vehicle>
    <vehicle id="passenger77" type="passenger" depart="154.00">
        <route edges="A0B0 B0C0 C0D0 D0D1"/>
    </vehicle>
    <vehicle id="passenger78" type="passenger" depart="156.00">
        <route edges="D0C0 C0D0 D0D1"/>
    </vehicle>
    <vehicle id="passenger79" type="passenger" depart="158.00">
        <route edges="B0A0 A0B0 B0C0 C0D0 D0D1"/>
    </vehicle>
    <vehicle id="passenger80" type="passenger" depart="160.00">
        <route edges="A0B0 B0B1"/>
    </vehicle>
    <vehicle id="passenger81" type="passenger" depart="162.00">
        <route edges="B0B1 B1A1 A1A0"/>
    </vehicle>
    <vehicle id="passenger82" type="passenger" depart="164.00">
        <route edges="A1A0 A0A1 A1B1 B1A1"/>
    </vehicle>
    <vehicle id="passenger83" type="passenger" depart="166.00">
        <route edges="A0B0 B0C0 C0D0"/>
    </vehicle>
    <vehicle id="passenger84" type="passenger" depart="168.00">
        <route edges="C0B0 B0C0 C0C1 C1D1"/>
    </vehicle>
    <vehicle id="passenger85" type="passenger" depart="170.00">
        <route edges="D1C1 C1B1 B1B0 B0B1"/>
    </vehicle>
    <vehicle id="passenger86" type="passenger" depart="172.00">
        <route edges="C0C1 C1D1 D1C1"/>
    </vehicle>
    <vehicle id="passenger87" type="passenger" depart="174.00">
        <route edges="A1A0 A0A1 A1B1 B1C1 C1D1"/>
    </vehicle>
    <vehicle id="passenger88" type="passenger" depart="176.00">
        <route edges="A1A0 A0A1 A1B1 B1A1"/>
    </vehicle>
    <vehicle id="passenger89" type="passenger" depart="178.00">
        <route edges="B1C1 C1B1"/>
    </vehicle>
    <vehicle id="passenger90" type="passenger" depart="180.00">
        <route edges="B0C0 C0C1 C1D1"/>
    </vehicle>
    <vehicle id="passenger91" type="passenger" depart="182.00">
        <route edges="D1D0 D0C0 C0B0 B0A0 A0A1 A1A0"/>
    </vehicle>
    <vehicle id="passenger92" type="passenger" depart="184.00">
        <route edges="B0A0 A0B0 B0B1 B1C1"/>
    </vehicle>
    <vehicle id="passenger93" type="passenger" depart="186.00">
        <route edges="C1B1 B1C1 C1D1"/>
    </vehicle>
    <vehicle id="passenger94" type="passenger" depart="188.00">
        <route edges="D1D0 D0C0 C0C1"/>
    </vehicle>
    <vehicle id="passenger95" type="passenger" depart="190.00">
        <route edges="A0B0 B0C0 C0D0"/>
    </vehicle>
    <vehicle id="passenger96" type="passenger" depart="192.00">
        <route edges="D0D1 D1C1 C1B1 B1C1"/>
    </vehicle>
    <vehicle id="passenger97" type="passenger" depart="194.00">
        <route edges="A1A0 A0A1 A1B1 B1C1 C1C0"/>
    </vehicle>
    <vehicle id="passenger98" type="passenger" depart="196.00">
        <route edges="A1B1 B1A1"/>
    </vehicle>
    <vehicle id="passenger99" type="passenger" depart="198.00">
        <route edges="B0B1 B1C1 C1D1 D1D0 D0C0"/>
    </vehicle>
    <vehicle id="passenger100" type="passenger" depart="200.00">
        <route edges="A1A0 A0A1 A1B1 B1C1 C1D1 D1D0"/>
    </vehicle>
    <vehicle id="passenger101" type="passenger" depart="202.00">
        <route edges="B0C0 C0B0 B0B1"/>
    </vehicle>
    <vehicle id="passenger102" type="passenger" depart="204.00">
        <route edges="B0B1 B1C1 C1B1"/>
    </vehicle>
    <vehicle id="passenger103" type="passenger" depart="206.00">
        <route edges="B1A1 A1A0 A0A1"/>
    </vehicle>
    <vehicle id="passenger104" type="passenger" depart="208.00">
        <route edges="D0C0 C0C1 C1B1"/>
    </vehicle>
    <vehicle id="passenger105" type="passenger" depart="210.00">
        <route edges="D1D0 D0D1"/>
    </vehicle>
    <vehicle id="passenger106" type="passenger" depart="212.00">
        <route edges="C0C1 C1B1 B1B0 B0A0"/>
    </vehicle>
    <vehicle id="passenger107" type="passenger" depart="214.00">
        <route edges="A0A1 A1B1 B1C1 C1D1 D1D0 D0C0"/>
    </vehicle>
    <vehicle id="passenger108" type="passenger" depart="216.00">
        <route edges="D1D0 D0C0 C0B0 B0C0"/>
    </vehicle>
    <vehicle id="passenger109" type="passenger" depart="218.00">
        <route edges="C0D0 D0C0"/>
    </vehicle>
    <vehicle id="passenger110" type="passenger" depart="220.00">
        <route edges="B1C1 C1B1"/>
    </vehicle>
    <vehicle id="passenger111" type="passenger" depart="222.00">
        <route edges="D1C1 C1B1 B1B0 B0B1"/>
    </vehicle>
    <vehicle id="passenger112" type="passenger" depart="224.00">
        <route edges="B0B1 B1C1 C1C0 C0B0"/>
    </vehicle>
    <vehicle id="passenger113" type="passenger" depart="226.00">
        <route edges="A1B1 B1C1 C1D1 D1D0 D0D1"/>
    </vehicle>
    <vehicle id="passenger114" type="passenger" depart="228.00">
        <route edges="D1C1 C1B1 B1C1"/>
    </vehicle>
    <vehicle id="passenger115" type="passenger" depart="230.00">
        <route edges="A1A0 A0B0 B0C0 C0D0 D0D1"/>
    </vehicle>
    <vehicle id="passenger116" type="passenger" depart="232.00">
        <route edges="A1A0"/>
    </vehicle>
    <vehicle id="passenger117" type="passenger" depart="234.00">
        <route edges="D1C1 C1B1 B1A1 A1B1"/>
    </vehicle>
    <vehicle id="passenger118" type="passenger" depart="236.00">
        <route edges="B0C0 C0B0 B0B1 B1C1"/>
    </vehicle>
    <vehicle id="passenger119" type="passenger" depart="238.00">
        <route edges="C1B1 B1C1"/>
    </vehicle>
    <vehicle id="passenger120" type="passenger" depart="240.00">
        <route edges="D0C0 C0C1 C1D1"/>
    </vehicle>
    <vehicle id="passenger121" type="passenger" depart="242.00">
        <route edges="B0A0 A0B0 B0C0 C0D0 D0C0"/>
    </vehicle>
    <vehicle id="passenger122" type="passenger" depart="244.00">
        <route edges="C1B1 B1C1 C1C0 C0C1"/>
    </vehicle>
    <vehicle id="passenger123" type="passenger" depart="246.00">
        <route edges="C0C1 C1D1"/>
    </vehicle>
    <vehicle id="passenger124" type="passenger" depart="248.00">
        <route edges="D1C1 C1D1 D1D0 D0C0"/>
    </vehicle>
    <vehicle id="passenger125" type="passenger" depart="250.00">
        <route edges="B0A0 A0B0 B0C0 C0C1 C1D1"/>
    </vehicle>
    <vehicle id="passenger126" type="passenger" depart="252.00">
        <route edges="A0A1 A1B1 B1B0 B0B1"/>
    </vehicle>
    <vehicle id="passenger127" type="passenger" depart="254.00">
        <route edges="C0D0 D0C0 C0B0 B0A0 A0A1 A1A0"/>
    </vehicle>
    <vehicle id="passenger128" type="passenger" depart="256.00">
        <route edges="B1B0 B0C0 C0D0 D0D1"/>
    </vehicle>
    <vehicle id="passenger129" type="passenger" depart="258.00">
        <route edges="B0B1 B1B0 B0A0"/>
    </vehicle>
    <vehicle id="passenger130" type="passenger" depart="260.00">
        <route edges="D0D1 D1D0 D0C0 C0B0 B0B1"/>
    </vehicle>
    <vehicle id="passenger131" type="passenger" depart="262.00">
        <route edges="C1B1 B1B0 B0B1"/>
    </vehicle>
    <vehicle id="passenger132" type="passenger" depart="264.00">
        <route edges="A0B0 B0A0 A0A1 A1A0"/>
    </vehicle>
    <vehicle id="passenger133" type="passenger" depart="266.00">
        <route edges="B1B0 B0C0 C0C1 C1B1"/>
    </vehicle>
    <vehicle id="passenger134" type="passenger" depart="268.00">
        <route edges="A0B0 B0A0 A0A1 A1A0"/>
    </vehicle>
    <vehicle id="passenger135" type="passenger" depart="270.00">
        <route edges="C0C1 C1B1 B1A1"/>
    </vehicle>
    <vehicle id="passenger136" type="passenger" depart="272.00">
        <route edges="A0A1"/>
    </vehicle>
    <vehicle id="passenger137" type="passenger" depart="274.00">
        <route edges="D0D1 D1C1 C1B1"/>
    </vehicle>
    <vehicle id="passenger138" type="passenger" depart="276.00">
        <route edges="A0A1 A1B1 B1B0 B0C0"/>
    </vehicle>
    <vehicle id="passenger139" type="passenger" depart="278.00">
        <route edges="A1B1 B1C1 C1C0 C0C1"/>
    </vehicle>
    <vehicle id="passenger140" type="passenger" depart="280.00">
        <route edges="C0C1 C1D1 D1D0 D0C0"/>
    </vehicle>
    <vehicle id="passenger141" type="passenger" depart="282.00">
        <route edges="C0B0 B0C0 C0C1 C1D1 D1D0"/>
    </vehicle>
    <vehicle id="passenger142" type="passenger" depart="284.00">
        <route edges="B1A1 A1B1 B1C1 C1C0 C0B0"/>
    </vehicle>
    <vehicle id="passenger143" type="passenger" depart="286.00">
        <route edges="B0B1 B1B0 B0A0"/>
    </vehicle>
    <vehicle id="passenger144" type="passenger" depart="288.00">
        <route edges="C1C0 C0B0 B0A0 A0A1"/>
    </vehicle>
    <vehicle id="passenger145" type="passenger" depart="290.00">
        <route edges="D1D0 D0D1 D1C1"/>
    </vehicle>
    <vehicle id="passenger146" type="passenger" depart="292.00">
        <route edges="B1B0 B0C0 C0D0 D0D1"/>
    </vehicle>
    <vehicle id="passenger147" type="passenger" depart="294.00">
        <route edges="D1C1 C1B1 B1C1"/>
    </vehicle>
    <vehicle id="passenger148" type="passenger" depart="296.00">
        <route edges="C1C0 C0D0"/>
    </vehicle>
    <vehicle id="passenger149" type="passenger" depart="298.00">
        <route edges="B0A0 A0B0 B0C0 C0C1 C1D1 D1C1"/>
    </vehicle>
</routes>
