<?xml version="1.0" encoding="UTF-8"?>
<!-- generated on 2021-05-03 15:51:10.142824 by $Id$
  options: -n map.net.xml -r passenger_routes.rou.xml -o passenger_trips.xml -b 0 -e 300 -p 2 <doubleminus>vehicle-class passenger
-->
<routes xmlns:xsi="http://www.w3.org/2001/XMLSchema-instance" xsi:noNamespaceSchemaLocation="http://sumo.dlr.de/xsd/routes_file.xsd">
    <vType id="passenger" vClass="passenger"/>
    <trip id="0" depart="0.00" from="C0C1" to="D1D0" type="passenger"/>
    <trip id="1" depart="2.00" from="B0B1" to="B0A0" type="passenger"/>
    <trip id="2" depart="4.00" from="A0A1" to="B1A1" type="passenger"/>
    <trip id="3" depart="6.00" from="A1B1" to="A0B0" type="passenger"/>
    <trip id="4" depart="8.00" from="A1A0" to="D0D1" type="passenger"/>
    <trip id="5" depart="10.00" from="C1B1" to="B1A1" type="passenger"/>
    <trip id="6" depart="12.00" from="C0C1" to="C1C0" type="passenger"/>
    <trip id="7" depart="14.00" from="B0C0" to="D0C0" type="passenger"/>
    <trip id="8" depart="16.00" from="A0B0" to="A1A0" type="passenger"/>
    <trip id="9" depart="18.00" from="C0B0" to="C0B0" type="passenger"/>
    <trip id="10" depart="20.00" from="B0C0" to="D1D0" type="passenger"/>
    <trip id="11" depart="22.00" from="C0C1" to="D0C0" type="passenger"/>
    <trip id="12" depart="24.00" from="C1D1" to="C1B1" type="passenger"/>
    <trip id="13" depart="26.00" from="B0A0" to="C1C0" type="passenger"/>
    <trip id="14" depart="28.00" from="B1C1" to="D0C0" type="passenger"/>
    <trip id="15" depart="30.00" from="B0B1" to="B1A1" type="passenger"/>
    <trip id="16" depart="32.00" from="A0B0" to="C0B0" type="passenger"/>
    <trip id="17" depart="34.00" from="B1B0" to="B1C1" type="passenger"/>
    <trip id="18" depart="36.00" from="A1A0" to="C0B0" type="passenger"/>
    <trip id="19" depart="38.00" from="B0B1" to="C0C1" type="passenger"/>
    <trip id="20" depart="40.00" from="A0A1" to="C1B1" type="passenger"/>
    <trip id="21" depart="42.00" from="A1B1" to="B0C0" type="passenger"/>
    <trip id="22" depart="44.00" from="C0D0" to="A1B1" type="passenger"/>
    <trip id="23" depart="46.00" from="C1B1" to="B0A0" type="passenger"/>
    <trip id="24" depart="48.00" from="D1D0" to="C1B1" type="passenger"/>
    <trip id="25" depart="50.00" from="A1A0" to="A0A1" type="passenger"/>
    <trip id="26" depart="52.00" from="D1C1" to="A1B1" type="passenger"/>
    <trip id="27" depart="54.00" from="B0A0" to="A1B1" type="passenger"/>
    <trip id="28" depart="56.00" from="A0B0" to="B0B1" type="passenger"/>
    <trip id="29" depart="58.00" from="C1D1" to="B0A0" type="passenger"/>
    <trip id="30" depart="60.00" from="A1B1" to="C0C1" type="passenger"/>
    <trip id="31" depart="62.00" from="D1D0" to="C1D1" type="passenger"/>
    <trip id="32" depart="64.00" from="B1A1" to="C1B1" type="passenger"/>
    <trip id="33" depart="66.00" from="A0A1" to="C0C1" type="passenger"/>
    <trip id="34" depart="68.00" from="C1C0" to="C1D1" type="passenger"/>
    <trip id="35" depart="70.00" from="B1A1" to="A0B0" type="passenger"/>
    <trip id="36" depart="72.00" from="B1A1" to="C0B0" type="passenger"/>
    <trip id="37" depart="74.00" from="C1D1" to="B1B0" type="passenger"/>
    <trip id="38" depart="76.00" from="B0B1" to="D0C0" type="passenger"/>
    <trip id="39" depart="78.00" from="D1C1" to="A0A1" type="passenger"/>
    <trip id="40" depart="80.00" from="B0A0" to="A1B1" type="passenger"/>
    <trip id="41" depart="82.00" from="A1A0" to="B1C1" type="passenger"/>
    <trip id="42" depart="84.00" from="B0A0" to="B0A0" type="passenger"/>
    <trip id="43" depart="86.00" from="D1D0" to="B1A1" type="passenger"/>
    <trip id="44" depart="88.00" from="B1C1" to="B1A1" type="passenger"/>
    <trip id="45" depart="90.00" from="B0A0" to="C0B0" type="passenger"/>
    <trip id="46" depart="92.00" from="C1B1" to="B1B0" type="passenger"/>
    <trip id="47" depart="94.00" from="C0D0" to="B1A1" type="passenger"/>
    <trip id="48" depart="96.00" from="C0B0" to="A1A0" type="passenger"/>
    <trip id="49" depart="98.00" from="B1B0" to="C1C0" type="passenger"/>
    <trip id="50" depart="100.00" from="A1B1" to="A0B0" type="passenger"/>
    <trip id="51" depart="102.00" from="A1A0" to="B0C0" type="passenger"/>
    <trip id="52" depart="104.00" from="C1B1" to="D0D1" type="passenger"/>
    <trip id="53" depart="106.00" from="A1B1" to="A0A1" type="passenger"/>
    <trip id="54" depart="108.00" from="C0B0" to="D1C1" type="passenger"/>
    <trip id="55" depart="110.00" from="B0A0" to="A1B1" type="passenger"/>
    <trip id="56" depart="112.00" from="D0D1" to="B0A0" type="passenger"/>
    <trip id="57" depart="114.00" from="B0C0" to="B1C1" type="passenger"/>
    <trip id="58" depart="116.00" from="D0D1" to="A1A0" type="passenger"/>
    <trip id="59" depart="118.00" from="A1A0" to="C1D1" type="passenger"/>
    <trip id="60" depart="120.00" from="C1D1" to="B1A1" type="passenger"/>
    <trip id="61" depart="122.00" from="D0D1" to="B0B1" type="passenger"/>
    <trip id="62" depart="124.00" from="D1D0" to="B0C0" type="passenger"/>
    <trip id="63" depart="126.00" from="A1A0" to="B1A1" type="passenger"/>
    <trip id="64" depart="128.00" from="C0B0" to="C1C0" type="passenger"/>
    <trip id="65" depart="130.00" from="B1C1" to="B0A0" type="passenger"/>
    <trip id="66" depart="132.00" from="B1A1" to="C1D1" type="passenger"/>
    <trip id="67" depart="134.00" from="C0D0" to="C1D1" type="passenger"/>
    <trip id="68" depart="136.00" from="A1A0" to="A1A0" type="passenger"/>
    <trip id="69" depart="138.00" from="B0A0" to="B1B0" type="passenger"/>
    <trip id="70" depart="140.00" from="A0B0" to="B0C0" type="passenger"/>
    <trip id="71" depart="142.00" from="A1B1" to="B1C1" type="passenger"/>
    <trip id="72" depart="144.00" from="D0C0" to="D1C1" type="passenger"/>
    <trip id="73" depart="146.00" from="C0D0" to="D0C0" type="passenger"/>
    <trip id="74" depart="148.00" from="C0D0" to="A0B0" type="passenger"/>
    <trip id="75" depart="150.00" from="D1C1" to="A1B1" type="passenger"/>
    <trip id="76" depart="152.00" from="A1B1" to="B0A0" type="passenger"/>
    <trip id="77" depart="154.00" from="A0B0" to="D0D1" type="passenger"/>
    <trip id="78" depart="156.00" from="D0C0" to="D0D1" type="passenger"/>
    <trip id="79" depart="158.00" from="B0A0" to="D0D1" type="passenger"/>
    <trip id="80" depart="160.00" from="A0B0" to="B0B1" type="passenger"/>
    <trip id="81" depart="162.00" from="B0B1" to="A1A0" type="passenger"/>
    <trip id="82" depart="164.00" from="A1A0" to="B1A1" type="passenger"/>
    <trip id="83" depart="166.00" from="A0B0" to="C0D0" type="passenger"/>
    <trip id="84" depart="168.00" from="C0B0" to="C1D1" type="passenger"/>
    <trip id="85" depart="170.00" from="D1C1" to="B0B1" type="passenger"/>
    <trip id="86" depart="172.00" from="C0C1" to="D1C1" type="passenger"/>
    <trip id="87" depart="174.00" from="A1A0" to="C1D1" type="passenger"/>
    <trip id="88" depart="176.00" from="A1A0" to="B1A1" type="passenger"/>
    <trip id="89" depart="178.00" from="B1C1" to="C1B1" type="passenger"/>
    <trip id="90" depart="180.00" from="B0C0" to="C1D1" type="passenger"/>
    <trip id="91" depart="182.00" from="D1D0" to="A1A0" type="passenger"/>
    <trip id="92" depart="184.00" from="B0A0" to="B1C1" type="passenger"/>
    <trip id="93" depart="186.00" from="C1B1" to="C1D1" type="passenger"/>
    <trip id="94" depart="188.00" from="D1D0" to="C0C1" type="passenger"/>
    <trip id="95" depart="190.00" from="A0B0" to="C0D0" type="passenger"/>
    <trip id="96" depart="192.00" from="D0D1" to="B1C1" type="passenger"/>
    <trip id="97" depart="194.00" from="A1A0" to="C1C0" type="passenger"/>
    <trip id="98" depart="196.00" from="A1B1" to="B1A1" type="passenger"/>
    <trip id="99" depart="198.00" from="B0B1" to="D0C0" type="passenger"/>
    <trip id="100" depart="200.00" from="A1A0" to="D1D0" type="passenger"/>
    <trip id="101" depart="202.00" from="B0C0" to="B0B1" type="passenger"/>
    <trip id="102" depart="204.00" from="B0B1" to="C1B1" type="passenger"/>
    <trip id="103" depart="206.00" from="B1A1" to="A0A1" type="passenger"/>
    <trip id="104" depart="208.00" from="D0C0" to="C1B1" type="passenger"/>
    <trip id="105" depart="210.00" from="D1D0" to="D0D1" type="passenger"/>
    <trip id="106" depart="212.00" from="C0C1" to="B0A0" type="passenger"/>
    <trip id="107" depart="214.00" from="A0A1" to="D0C0" type="passenger"/>
    <trip id="108" depart="216.00" from="D1D0" to="B0C0" type="passenger"/>
    <trip id="109" depart="218.00" from="C0D0" to="D0C0" type="passenger"/>
    <trip id="110" depart="220.00" from="B1C1" to="C1B1" type="passenger"/>
    <trip id="111" depart="222.00" from="D1C1" to="B0B1" type="passenger"/>
    <trip id="112" depart="224.00" from="B0B1" to="C0B0" type="passenger"/>
    <trip id="113" depart="226.00" from="A1B1" to="D0D1" type="passenger"/>
    <trip id="114" depart="228.00" from="D1C1" to="B1C1" type="passenger"/>
    <trip id="115" depart="230.00" from="A1A0" to="D0D1" type="passenger"/>
    <trip id="116" depart="232.00" from="A1A0" to="A1A0" type="passenger"/>
    <trip id="117" depart="234.00" from="D1C1" to="A1B1" type="passenger"/>
    <trip id="118" depart="236.00" from="B0C0" to="B1C1" type="passenger"/>
    <trip id="119" depart="238.00" from="C1B1" to="B1C1" type="passenger"/>
    <trip id="120" depart="240.00" from="D0C0" to="C1D1" type="passenger"/>
    <trip id="121" depart="242.00" from="B0A0" to="D0C0" type="passenger"/>
    <trip id="122" depart="244.00" from="C1B1" to="C0C1" type="passenger"/>
    <trip id="123" depart="246.00" from="C0C1" to="C1D1" type="passenger"/>
    <trip id="124" depart="248.00" from="D1C1" to="D0C0" type="passenger"/>
    <trip id="125" depart="250.00" from="B0A0" to="C1D1" type="passenger"/>
    <trip id="126" depart="252.00" from="A0A1" to="B0B1" type="passenger"/>
    <trip id="127" depart="254.00" from="C0D0" to="A1A0" type="passenger"/>
    <trip id="128" depart="256.00" from="B1B0" to="D0D1" type="passenger"/>
    <trip id="129" depart="258.00" from="B0B1" to="B0A0" type="passenger"/>
    <trip id="130" depart="260.00" from="D0D1" to="B0B1" type="passenger"/>
    <trip id="131" depart="262.00" from="C1B1" to="B0B1" type="passenger"/>
    <trip id="132" depart="264.00" from="A0B0" to="A1A0" type="passenger"/>
    <trip id="133" depart="266.00" from="B1B0" to="C1B1" type="passenger"/>
    <trip id="134" depart="268.00" from="A0B0" to="A1A0" type="passenger"/>
    <trip id="135" depart="270.00" from="C0C1" to="B1A1" type="passenger"/>
    <trip id="136" depart="272.00" from="A0A1" to="A0A1" type="passenger"/>
    <trip id="137" depart="274.00" from="D0D1" to="C1B1" type="passenger"/>
    <trip id="138" depart="276.00" from="A0A1" to="B0C0" type="passenger"/>
    <trip id="139" depart="278.00" from="A1B1" to="C0C1" type="passenger"/>
    <trip id="140" depart="280.00" from="C0C1" to="D0C0" type="passenger"/>
    <trip id="141" depart="282.00" from="C0B0" to="D1D0" type="passenger"/>
    <trip id="142" depart="284.00" from="B1A1" to="C0B0" type="passenger"/>
    <trip id="143" depart="286.00" from="B0B1" to="B0A0" type="passenger"/>
    <trip id="144" depart="288.00" from="C1C0" to="A0A1" type="passenger"/>
    <trip id="145" depart="290.00" from="D1D0" to="D1C1" type="passenger"/>
    <trip id="146" depart="292.00" from="B1B0" to="D0D1" type="passenger"/>
    <trip id="147" depart="294.00" from="D1C1" to="B1C1" type="passenger"/>
    <trip id="148" depart="296.00" from="C1C0" to="C0D0" type="passenger"/>
    <trip id="149" depart="298.00" from="B0A0" to="D1C1" type="passenger"/>
</routes>
