<?xml version="1.0" encoding="UTF-8"?>
<!-- generated on 2021-03-15 14:30:57.557062 by $Id$
  options: -n map.net.xml -r delivery_routes.rou.xml -o delivery_trips.xml -e 300 -p 30 <doubleminus>vehicle-class delivery <doubleminus>trip-attributes=color="115,211,230"
-->
<routes xmlns:xsi="http://www.w3.org/2001/XMLSchema-instance" xsi:noNamespaceSchemaLocation="http://sumo.dlr.de/xsd/routes_file.xsd">
    <vType id="delivery" vClass="delivery" color="115,211,230"/>
    <trip id="0" depart="0.00" from="165886068#4" to="396232538#2" type="delivery"/>
    <trip id="1" depart="30.00" from="112571146#1" to="390770586" type="delivery"/>
    <trip id="2" depart="60.00" from="133747105" to="365218502" type="delivery"/>
    <trip id="3" depart="90.00" from="-463054745" to="354120404#0" type="delivery"/>
    <trip id="4" depart="120.00" from="813962437#4" to="-95895493#1" type="delivery"/>
    <trip id="5" depart="150.00" from="30967936#3" to="-390776376#0" type="delivery"/>
    <trip id="6" depart="180.00" from="48826786#1" to="474375214#1" type="delivery"/>
    <trip id="7" depart="210.00" from="-31312839#3" to="-48846523" type="delivery"/>
    <trip id="8" depart="240.00" from="396232536" to="396060105#5" type="delivery"/>
    <trip id="9" depart="270.00" from="831787975" to="49236317#3" type="delivery"/>
</routes>
