<?xml version="1.0" encoding="UTF-8"?>

<!-- generated on Mon Mar 15 14:30:57 2021 by Eclipse SUMO duarouter Version 1.1.0
<configuration xmlns:xsi="http://www.w3.org/2001/XMLSchema-instance" xsi:noNamespaceSchemaLocation="http://sumo.dlr.de/xsd/duarouterConfiguration.xsd">

    <input>
        <net-file value="map.net.xml"/>
        <route-files value="delivery_trips.xml"/>
    </input>

    <output>
        <output-file value="delivery_routes.rou.xml"/>
        <alternatives-output value="delivery_routes.rou.alt.xml"/>
    </output>

    <time>
        <begin value="0"/>
        <end value="300.0"/>
    </time>

    <report>
        <no-warnings value="true"/>
        <ignore-errors value="true"/>
        <no-step-log value="true"/>
    </report>

</configuration>
-->

<routes xmlns:xsi="http://www.w3.org/2001/XMLSchema-instance" xsi:noNamespaceSchemaLocation="http://sumo.dlr.de/xsd/routes_file.xsd">
    <vType id="delivery" vClass="delivery" color="115,211,230"/>
    <vehicle id="deliv0" type="delivery" depart="0.00">
        <route edges="165886068#4 -165886068#4 -165886068#3 -165886068#2 -165886068#1 -165886068#0 -30765281 -424668928#1 -424668928#0 -30989254 -397307498#6 -397307498#5 -397307498#4 -397307498#3 -397307498#2 -397307498#1 -397307498#0 -438006981#2 -438006981#1 -438006981#0 165886062 30771950#1 397307501#0 397307501#1 48846380#3 48846380#4 48846380#5 391000058 396232538#0 396232538#1 396232538#2"/>
    </vehicle>
    <vehicle id="deliv1" type="delivery" depart="30.00">
        <route edges="112571146#1 112571146#2 112571146#3 112571146#4 112571146#5 112571146#6 112571146#7 112571146#8 396464770#0 396464770#1 396464769#0 396464769#1 354120398#0 354120398#1 354120398#2 354120398#3 354120398#4 354120398#5 354120398#6 44617691#0 44617691#1 -44617692#7 -44617692#6 -44617692#5 -44617692#4 -44617692#3 -44617692#2 -44617692#1 -44617692#0 30765305#0 30765305#1 30765305#2 30765305#3 30765305#4 30765305#5 30765305#6 30765305#7 30765305#8 30765305#9 30765305#10 30765305#11 30765305#12 30765305#13 30765305#14 162031059 558877178 812662184 136299032#0 136299032#1 136299032#2 136299032#3 136299032#4 136299032#5 136299032#6 48828888#0 48828888#1 48828888#2 48828888#3 569868740#0 569868740#1 704505455#0 704505455#1 704505455#2 390770586"/>
    </vehicle>
    <vehicle id="deliv2" type="delivery" depart="60.00">
        <route edges="133747105 -133747105 48846316#3 48846316#4 396220343#2 136035858 136035855#0 136035855#1 -131398241 44706459#0 44706459#1 44706459#2 44706459#3 44706459#4 778024065 474474477#0 474474477#1 133747106#0 133747106#1 -396229579#1 365218502"/>
    </vehicle>
    <vehicle id="deliv3" type="delivery" depart="90.00">
        <route edges="-463054745 -238961507#0 48828888#0 812662179 812662183#3 812662183#4 443832372#0 443832372#1 443832372#2 443832372#3 443832372#4 443832372#5 443832372#6 443832372#7 443832372#8 443832372#9 -812662182#6 -812662182#5 -812662182#4 -812662182#3 -812662182#2 -812662182#1 -812662182#0 162031058 30967917#0 30967917#1 30967917#2 30967917#3 30967917#4 30967917#5 30967917#6 30967917#7 30967917#8 558870795#0 49381219 398193759 80334263 83631585#0 83631585#1 83631585#2 354120404#0"/>
    </vehicle>
    <vehicle id="deliv4" type="delivery" depart="120.00">
        <route edges="813962437#4 -813962437#4 -813962437#3 -813962437#2 -813962437#1 -813962437#0 49236317#0 49236317#1 49236317#2 49236317#3 49236317#4 396067910#22 396067910#23 -112571163 -44617694#1 -44617694#0 -396067915#3 -396067915#2 -396067915#1 -396067915#0 -30967938#12 -30967938#11 -30967938#10 -30967938#9 -30967938#8 -30967938#7 -30967938#6 -30967938#5 -30967938#4 -30967938#3 -30967938#2 -30967938#1 -30967938#0 778885879#0 778885879#1 778885879#2 778885879#3 778885879#4 -112571165#3 -112571165#2 -112571165#1 -112571165#0 -112571145 -30771950#2 -30771950#1 -30771950#0 -95895495#2 -95895495#1 -95895495#0 -95895493#1"/>
    </vehicle>
    <vehicle id="deliv5" type="delivery" depart="150.00">
        <route edges="30967936#3 30967936#4 30967936#5 30967936#6 30967936#7 30967936#8 30967936#9 30967936#10 30967936#11 30967936#12 30967936#13 30967938#6 30967938#7 30967938#8 30967938#9 30967938#10 30967938#11 30967938#12 396067915#0 396067915#1 396067915#2 396067915#3 44617695 354120398#1 354120398#2 354120398#3 354120398#4 354120398#5 354120398#6 30765317#0 30765317#1 30765317#2 30765317#3 30765317#4 30765317#5 30765317#6 30765317#7 30765317#8 -49285973 354120402#0 49285989#0 -102616728 -102616726#0 -80339001#4 -80339001#3 -80339001#2 -80339001#1 390776376#0 -390776376#0"/>
    </vehicle>
    <vehicle id="deliv6" type="delivery" depart="180.00">
        <route edges="48826786#1 48826786#2 711652467#2 -48826775 474375214#2 474375215#0 474375215#1 474375215#2 474373320 474375214#1"/>
    </vehicle>
    <vehicle id="deliv7" type="delivery" depart="210.00">
        <route edges="-31312839#3 -31312839#2 -31312839#1 -31312839#0 778885882#0 778885882#1 30967848#0 30967848#1 30967848#2 396464770#0 396464770#1 30967849#0 30967849#1 396464768#0 396464768#1 30967569#0 160892849#0 160892849#1 160892849#2 49236317#0 49236317#1 49236317#2 49236317#3 49236317#4 396067910#22 396067910#23 -112571163 -44617694#1 -44617694#0 -396067915#3 -396067915#2 -396067915#1 -396067915#0 -30967938#12 -30967938#11 -30967938#10 -30967938#9 -30967938#8 -30967938#7 -30967938#6 -30967938#5 -30967938#4 -30967938#3 -30967938#2 -48846523"/>
    </vehicle>
    <vehicle id="deliv8" type="delivery" depart="240.00">
        <route edges="396232536 812630303 48828677 391000055#2 391000055#3 391000055#4 391000055#5 391000055#6 391000055#7 391000055#8 44936304#0 44936304#1 44936304#2 112571165#2 112571165#3 407836307#0 407836307#1 407836307#2 407836307#3 407836307#4 407836307#5 30967938#0 30967938#1 30967938#2 30967938#3 30967938#4 30967938#5 30967938#6 30967938#7 30967938#8 30967938#9 30967938#10 30967938#11 30967938#12 396067915#0 396067915#1 396067915#2 396067915#3 44617695 354120398#1 354120398#2 354120398#3 354120398#4 354120398#5 354120398#6 30765317#0 30765317#1 30765317#2 30765317#3 30765317#4 30765317#5 30765317#6 30765317#7 30765317#8 354120397#0 354120397#1 44660063 396060105#5"/>
    </vehicle>
    <vehicle id="deliv9" type="delivery" depart="270.00">
        <route edges="831787975 49236348#0 49236348#1 396067910#12 396067910#13 396067910#14 396067910#15 396067910#16 396067910#17 396067910#18 396067910#19 396067910#20 396067910#21 812654512 812629547#1 112571151#0 390864724 49236317#3"/>
    </vehicle>
</routes>
