<configuration>
    <input>
       <net-file value="map.net.xml"/>
       <route-files value="passenger_routes.rou.xml"/>
    </input>

    <gui_only>
        <gui-settings-file value="settings.xml"/>
     </gui_only>
     
</configuration>
